
#======================================================================
# CRYSTAL DATA
#----------------------------------------------------------------------
data_VESTA_phase_1

_chemical_name_common                  'Zn2'
_cell_length_a                         14.295062
_cell_length_b                         10.457439
_cell_length_c                         25.120794
_cell_angle_alpha                      111.455040
_cell_angle_beta                       94.031647
_cell_angle_gamma                      68.544960
_cell_volume                           3244.138219
_space_group_name_H-M_alt              'P 1'
_space_group_IT_number                 1

loop_
_space_group_symop_operation_xyz
   'x, y, z'

loop_
   _atom_site_label
   _atom_site_occupancy
   _atom_site_fract_x
   _atom_site_fract_y
   _atom_site_fract_z
   _atom_site_adp_type
   _atom_site_U_iso_or_equiv
   _atom_site_type_symbol
   Zn1        1.0     0.104167     0.083333     0.011855    Uiso  ? Zn
   Zn2        1.0     0.104167     0.333333     0.011855    Uiso  ? Zn
   Zn3        1.0     0.104167     0.583334     0.011855    Uiso  ? Zn
   Zn4        1.0     0.104167     0.833333     0.011855    Uiso  ? Zn
   Zn5        1.0     0.354167     0.083333     0.011855    Uiso  ? Zn
   Zn6        1.0     0.354167     0.333333     0.011855    Uiso  ? Zn
   Zn7        1.0     0.354167     0.583334     0.011855    Uiso  ? Zn
   Zn8        1.0     0.354167     0.833333     0.011855    Uiso  ? Zn
   Zn9        1.0     0.604167     0.083333     0.011855    Uiso  ? Zn
   Zn10       1.0     0.604167     0.333333     0.011855    Uiso  ? Zn
   Zn11       1.0     0.604167     0.583334     0.011855    Uiso  ? Zn
   Zn12       1.0     0.604167     0.833333     0.011855    Uiso  ? Zn
   Zn13       1.0     0.854167     0.083333     0.011855    Uiso  ? Zn
   Zn14       1.0     0.854167     0.333333     0.011855    Uiso  ? Zn
   Zn15       1.0     0.854167     0.583334     0.011855    Uiso  ? Zn
   Zn16       1.0     0.854167     0.833333     0.011855    Uiso  ? Zn
   Zn17       1.0     0.145833     0.166667     0.130408    Uiso  ? Zn
   Zn18       1.0     0.145833     0.416667     0.130408    Uiso  ? Zn
   Zn19       1.0     0.145833     0.666667     0.130408    Uiso  ? Zn
   Zn20       1.0     0.145833     0.916667     0.130408    Uiso  ? Zn
   Zn21       1.0     0.395833     0.166667     0.130408    Uiso  ? Zn
   Zn22       1.0     0.395833     0.416667     0.130408    Uiso  ? Zn
   Zn23       1.0     0.395833     0.666667     0.130408    Uiso  ? Zn
   Zn24       1.0     0.395833     0.916667     0.130408    Uiso  ? Zn
   Zn25       1.0     0.645833     0.166667     0.130408    Uiso  ? Zn
   Zn26       1.0     0.645833     0.416667     0.130408    Uiso  ? Zn
   Zn27       1.0     0.645833     0.666667     0.130408    Uiso  ? Zn
   Zn28       1.0     0.645833     0.916667     0.130408    Uiso  ? Zn
   Zn29       1.0     0.895833     0.166667     0.130408    Uiso  ? Zn
   Zn30       1.0     0.895833     0.416667     0.130408    Uiso  ? Zn
   Zn31       1.0     0.895833     0.666667     0.130408    Uiso  ? Zn
   Zn32       1.0     0.895833     0.916667     0.130408    Uiso  ? Zn
   Zn33       1.0     0.229167     0.083333     0.082987    Uiso  ? Zn
   Zn34       1.0     0.229167     0.333333     0.082987    Uiso  ? Zn
   Zn35       1.0     0.229167     0.583332     0.082987    Uiso  ? Zn
   Zn36       1.0     0.229167     0.833333     0.082987    Uiso  ? Zn
   Zn37       1.0     0.479167     0.083333     0.082987    Uiso  ? Zn
   Zn38       1.0     0.479167     0.333333     0.082987    Uiso  ? Zn
   Zn39       1.0     0.479167     0.583332     0.082987    Uiso  ? Zn
   Zn40       1.0     0.479167     0.833333     0.082987    Uiso  ? Zn
   Zn41       1.0     0.729167     0.083333     0.082987    Uiso  ? Zn
   Zn42       1.0     0.729167     0.333333     0.082987    Uiso  ? Zn
   Zn43       1.0     0.729167     0.583332     0.082987    Uiso  ? Zn
   Zn44       1.0     0.729167     0.833333     0.082987    Uiso  ? Zn
   Zn45       1.0     0.979167     0.083333     0.082987    Uiso  ? Zn
   Zn46       1.0     0.979167     0.333333     0.082987    Uiso  ? Zn
   Zn47       1.0     0.979167     0.583332     0.082987    Uiso  ? Zn
   Zn48       1.0     0.979167     0.833333     0.082987    Uiso  ? Zn
   Zn49       1.0     0.020833     0.166667     0.059276    Uiso  ? Zn
   Zn50       1.0     0.020833     0.416667     0.059276    Uiso  ? Zn
   Zn51       1.0     0.020833     0.666667     0.059276    Uiso  ? Zn
   Zn52       1.0     0.020833     0.916667     0.059276    Uiso  ? Zn
   Zn53       1.0     0.270833     0.166667     0.059276    Uiso  ? Zn
   Zn54       1.0     0.270833     0.416667     0.059276    Uiso  ? Zn
   Zn55       1.0     0.270833     0.666667     0.059276    Uiso  ? Zn
   Zn56       1.0     0.270833     0.916667     0.059276    Uiso  ? Zn
   Zn57       1.0     0.520833     0.166667     0.059276    Uiso  ? Zn
   Zn58       1.0     0.520833     0.416667     0.059276    Uiso  ? Zn
   Zn59       1.0     0.520833     0.666667     0.059276    Uiso  ? Zn
   Zn60       1.0     0.520833     0.916667     0.059276    Uiso  ? Zn
   Zn61       1.0     0.770833     0.166667     0.059276    Uiso  ? Zn
   Zn62       1.0     0.770833     0.416667     0.059276    Uiso  ? Zn
   Zn63       1.0     0.770833     0.666667     0.059276    Uiso  ? Zn
   Zn64       1.0     0.770833     0.916667     0.059276    Uiso  ? Zn
   O1         1.0     0.519118     0.507010     0.188591    Uiso  ? O
   H1         1.0     0.591776     0.458366     0.186208    Uiso  ? H
   H2         1.0     0.497824     0.527429     0.227631    Uiso  ? H
