
#======================================================================
# CRYSTAL DATA
#----------------------------------------------------------------------
data_VESTA_phase_1

_chemical_name_common                  'Zn2'
_cell_length_a                         10.721298
_cell_length_b                         10.457440
_cell_length_c                         32.268326
_cell_angle_alpha                      111.455040
_cell_angle_beta                       94.031647
_cell_angle_gamma                      68.544960
_cell_volume                           3125.386889
_space_group_name_H-M_alt              'P 1'
_space_group_IT_number                 1

loop_
_space_group_symop_operation_xyz
   'x, y, z'

loop_
   _atom_site_label
   _atom_site_occupancy
   _atom_site_fract_x
   _atom_site_fract_y
   _atom_site_fract_z
   _atom_site_adp_type
   _atom_site_U_iso_or_equiv
   _atom_site_type_symbol
   Zn1        1.0     0.138889     0.083333     0.009229    Uiso  ? Zn
   Zn1        1.0     0.138889     0.333333     0.009229    Uiso  ? Zn
   Zn1        1.0     0.138889     0.583333     0.009229    Uiso  ? Zn
   Zn1        1.0     0.138889     0.833333     0.009229    Uiso  ? Zn
   Zn1        1.0     0.472222     0.083333     0.009229    Uiso  ? Zn
   Zn1        1.0     0.472222     0.333333     0.009229    Uiso  ? Zn
   Zn1        1.0     0.472222     0.583333     0.009229    Uiso  ? Zn
   Zn1        1.0     0.472222     0.833333     0.009229    Uiso  ? Zn
   Zn1        1.0     0.805556     0.083333     0.009229    Uiso  ? Zn
   Zn1        1.0     0.805556     0.333333     0.009229    Uiso  ? Zn
   Zn1        1.0     0.805556     0.583333     0.009229    Uiso  ? Zn
   Zn1        1.0     0.805556     0.833333     0.009229    Uiso  ? Zn
   Zn2        1.0     0.138889     0.083333     0.119981    Uiso  ? Zn
   Zn2        1.0     0.138889     0.333333     0.119981    Uiso  ? Zn
   Zn2        1.0     0.138889     0.583333     0.119981    Uiso  ? Zn
   Zn2        1.0     0.138889     0.833333     0.119981    Uiso  ? Zn
   Zn2        1.0     0.472222     0.083333     0.119981    Uiso  ? Zn
   Zn2        1.0     0.472222     0.333333     0.119981    Uiso  ? Zn
   Zn2        1.0     0.472222     0.583333     0.119981    Uiso  ? Zn
   Zn2        1.0     0.472222     0.833333     0.119981    Uiso  ? Zn
   Zn2        1.0     0.805556     0.083333     0.119981    Uiso  ? Zn
   Zn2        1.0     0.805556     0.333333     0.119981    Uiso  ? Zn
   Zn2        1.0     0.805556     0.583333     0.119981    Uiso  ? Zn
   Zn2        1.0     0.805556     0.833333     0.119981    Uiso  ? Zn
   Zn3        1.0     0.138889     0.083333     0.230732    Uiso  ? Zn
   Zn3        1.0     0.138889     0.333333     0.230732    Uiso  ? Zn
   Zn3        1.0     0.138889     0.583333     0.230732    Uiso  ? Zn
   Zn3        1.0     0.138889     0.833333     0.230732    Uiso  ? Zn
   Zn3        1.0     0.472222     0.083333     0.230732    Uiso  ? Zn
   Zn3        1.0     0.472222     0.333333     0.230732    Uiso  ? Zn
   Zn3        1.0     0.472222     0.583333     0.230732    Uiso  ? Zn
   Zn3        1.0     0.472222     0.833333     0.230732    Uiso  ? Zn
   Zn3        1.0     0.805556     0.083333     0.230732    Uiso  ? Zn
   Zn3        1.0     0.805556     0.333333     0.230732    Uiso  ? Zn
   Zn3        1.0     0.805556     0.583333     0.230732    Uiso  ? Zn
   Zn3        1.0     0.805556     0.833333     0.230732    Uiso  ? Zn
   Zn4        1.0     0.194444     0.166667     0.101522    Uiso  ? Zn
   Zn4        1.0     0.194444     0.416667     0.101522    Uiso  ? Zn
   Zn4        1.0     0.194444     0.666667     0.101522    Uiso  ? Zn
   Zn4        1.0     0.194444     0.916667     0.101522    Uiso  ? Zn
   Zn4        1.0     0.527778     0.166667     0.101522    Uiso  ? Zn
   Zn4        1.0     0.527778     0.416667     0.101522    Uiso  ? Zn
   Zn4        1.0     0.527778     0.666667     0.101522    Uiso  ? Zn
   Zn4        1.0     0.527778     0.916667     0.101522    Uiso  ? Zn
   Zn4        1.0     0.861111     0.166667     0.101522    Uiso  ? Zn
   Zn4        1.0     0.861111     0.416667     0.101522    Uiso  ? Zn
   Zn4        1.0     0.861111     0.666667     0.101522    Uiso  ? Zn
   Zn4        1.0     0.861111     0.916667     0.101522    Uiso  ? Zn
   Zn5        1.0     0.194444     0.166667     0.212274    Uiso  ? Zn
   Zn5        1.0     0.194444     0.416667     0.212274    Uiso  ? Zn
   Zn5        1.0     0.194444     0.666667     0.212274    Uiso  ? Zn
   Zn5        1.0     0.194444     0.916667     0.212274    Uiso  ? Zn
   Zn5        1.0     0.527778     0.166667     0.212274    Uiso  ? Zn
   Zn5        1.0     0.527778     0.416667     0.212274    Uiso  ? Zn
   Zn5        1.0     0.527778     0.666667     0.212274    Uiso  ? Zn
   Zn5        1.0     0.527778     0.916667     0.212274    Uiso  ? Zn
   Zn5        1.0     0.861111     0.166667     0.212274    Uiso  ? Zn
   Zn5        1.0     0.861111     0.416667     0.212274    Uiso  ? Zn
   Zn5        1.0     0.861111     0.666667     0.212274    Uiso  ? Zn
   Zn5        1.0     0.861111     0.916667     0.212274    Uiso  ? Zn
   Zn6        1.0     0.194444     0.166667     0.323025    Uiso  ? Zn
   Zn6        1.0     0.194444     0.416667     0.323025    Uiso  ? Zn
   Zn6        1.0     0.194444     0.666667     0.323025    Uiso  ? Zn
   Zn6        1.0     0.194444     0.916667     0.323025    Uiso  ? Zn
   Zn6        1.0     0.527778     0.166667     0.323025    Uiso  ? Zn
   Zn6        1.0     0.527778     0.416667     0.323025    Uiso  ? Zn
   Zn6        1.0     0.527778     0.666667     0.323025    Uiso  ? Zn
   Zn6        1.0     0.527778     0.916667     0.323025    Uiso  ? Zn
   Zn6        1.0     0.861111     0.166667     0.323025    Uiso  ? Zn
   Zn6        1.0     0.861111     0.416667     0.323025    Uiso  ? Zn
   Zn6        1.0     0.861111     0.666667     0.323025    Uiso  ? Zn
   Zn6        1.0     0.861111     0.916667     0.323025    Uiso  ? Zn
   Zn7        1.0     0.305556     0.083333     0.064605    Uiso  ? Zn
   Zn7        1.0     0.305556     0.333333     0.064605    Uiso  ? Zn
   Zn7        1.0     0.305556     0.583333     0.064605    Uiso  ? Zn
   Zn7        1.0     0.305556     0.833333     0.064605    Uiso  ? Zn
   Zn7        1.0     0.638889     0.083333     0.064605    Uiso  ? Zn
   Zn7        1.0     0.638889     0.333333     0.064605    Uiso  ? Zn
   Zn7        1.0     0.638889     0.583333     0.064605    Uiso  ? Zn
   Zn7        1.0     0.638889     0.833333     0.064605    Uiso  ? Zn
   Zn7        1.0     0.972222     0.083333     0.064605    Uiso  ? Zn
   Zn7        1.0     0.972222     0.333333     0.064605    Uiso  ? Zn
   Zn7        1.0     0.972222     0.583333     0.064605    Uiso  ? Zn
   Zn7        1.0     0.972222     0.833333     0.064605    Uiso  ? Zn
   Zn8        1.0     0.305556     0.083333     0.175357    Uiso  ? Zn
   Zn8        1.0     0.305556     0.333333     0.175357    Uiso  ? Zn
   Zn8        1.0     0.305556     0.583333     0.175357    Uiso  ? Zn
   Zn8        1.0     0.305556     0.833333     0.175357    Uiso  ? Zn
   Zn8        1.0     0.638889     0.083333     0.175357    Uiso  ? Zn
   Zn8        1.0     0.638889     0.333333     0.175357    Uiso  ? Zn
   Zn8        1.0     0.638889     0.583333     0.175357    Uiso  ? Zn
   Zn8        1.0     0.638889     0.833333     0.175357    Uiso  ? Zn
   Zn8        1.0     0.972222     0.083333     0.175357    Uiso  ? Zn
   Zn8        1.0     0.972222     0.333333     0.175357    Uiso  ? Zn
   Zn8        1.0     0.972222     0.583333     0.175357    Uiso  ? Zn
   Zn8        1.0     0.972222     0.833333     0.175357    Uiso  ? Zn
   Zn9        1.0     0.305556     0.083333     0.286108    Uiso  ? Zn
   Zn9        1.0     0.305556     0.333333     0.286108    Uiso  ? Zn
   Zn9        1.0     0.305556     0.583333     0.286108    Uiso  ? Zn
   Zn9        1.0     0.305556     0.833333     0.286108    Uiso  ? Zn
   Zn9        1.0     0.638889     0.083333     0.286108    Uiso  ? Zn
   Zn9        1.0     0.638889     0.333333     0.286108    Uiso  ? Zn
   Zn9        1.0     0.638889     0.583333     0.286108    Uiso  ? Zn
   Zn9        1.0     0.638889     0.833333     0.286108    Uiso  ? Zn
   Zn9        1.0     0.972222     0.083333     0.286108    Uiso  ? Zn
   Zn9        1.0     0.972222     0.333333     0.286108    Uiso  ? Zn
   Zn9        1.0     0.972222     0.583333     0.286108    Uiso  ? Zn
   Zn9        1.0     0.972222     0.833333     0.286108    Uiso  ? Zn
   Zn10       1.0     0.027778     0.166667     0.046146    Uiso  ? Zn
   Zn10       1.0     0.027778     0.416667     0.046146    Uiso  ? Zn
   Zn10       1.0     0.027778     0.666667     0.046146    Uiso  ? Zn
   Zn10       1.0     0.027778     0.916667     0.046146    Uiso  ? Zn
   Zn10       1.0     0.361111     0.166667     0.046146    Uiso  ? Zn
   Zn10       1.0     0.361111     0.416667     0.046146    Uiso  ? Zn
   Zn10       1.0     0.361111     0.666667     0.046146    Uiso  ? Zn
   Zn10       1.0     0.361111     0.916667     0.046146    Uiso  ? Zn
   Zn10       1.0     0.694444     0.166667     0.046146    Uiso  ? Zn
   Zn10       1.0     0.694444     0.416667     0.046146    Uiso  ? Zn
   Zn10       1.0     0.694444     0.666667     0.046146    Uiso  ? Zn
   Zn10       1.0     0.694444     0.916667     0.046146    Uiso  ? Zn
   Zn11       1.0     0.027778     0.166667     0.156898    Uiso  ? Zn
   Zn11       1.0     0.027778     0.416667     0.156898    Uiso  ? Zn
   Zn11       1.0     0.027778     0.666667     0.156898    Uiso  ? Zn
   Zn11       1.0     0.027778     0.916667     0.156898    Uiso  ? Zn
   Zn11       1.0     0.361111     0.166667     0.156898    Uiso  ? Zn
   Zn11       1.0     0.361111     0.416667     0.156898    Uiso  ? Zn
   Zn11       1.0     0.361111     0.666667     0.156898    Uiso  ? Zn
   Zn11       1.0     0.361111     0.916667     0.156898    Uiso  ? Zn
   Zn11       1.0     0.694444     0.166667     0.156898    Uiso  ? Zn
   Zn11       1.0     0.694444     0.416667     0.156898    Uiso  ? Zn
   Zn11       1.0     0.694444     0.666667     0.156898    Uiso  ? Zn
   Zn11       1.0     0.694444     0.916667     0.156898    Uiso  ? Zn
   Zn12       1.0     0.027778     0.166667     0.267649    Uiso  ? Zn
   Zn12       1.0     0.027778     0.416667     0.267649    Uiso  ? Zn
   Zn12       1.0     0.027778     0.666667     0.267649    Uiso  ? Zn
   Zn12       1.0     0.027778     0.916667     0.267649    Uiso  ? Zn
   Zn12       1.0     0.361111     0.166667     0.267649    Uiso  ? Zn
   Zn12       1.0     0.361111     0.416667     0.267649    Uiso  ? Zn
   Zn12       1.0     0.361111     0.666667     0.267649    Uiso  ? Zn
   Zn12       1.0     0.361111     0.916667     0.267649    Uiso  ? Zn
   Zn12       1.0     0.694444     0.166667     0.267649    Uiso  ? Zn
   Zn12       1.0     0.694444     0.416667     0.267649    Uiso  ? Zn
   Zn12       1.0     0.694444     0.666667     0.267649    Uiso  ? Zn
   Zn12       1.0     0.694444     0.916667     0.267649    Uiso  ? Zn
   Zn13       1.0     0.305556     0.083333     0.064605    Uiso  ? Zn
   Zn13       1.0     0.305556     0.333333     0.064605    Uiso  ? Zn
   Zn13       1.0     0.305556     0.583333     0.064605    Uiso  ? Zn
   Zn13       1.0     0.305556     0.833333     0.064605    Uiso  ? Zn
   Zn13       1.0     0.638889     0.083333     0.064605    Uiso  ? Zn
   Zn13       1.0     0.638889     0.333333     0.064605    Uiso  ? Zn
   Zn13       1.0     0.638889     0.583333     0.064605    Uiso  ? Zn
   Zn13       1.0     0.638889     0.833333     0.064605    Uiso  ? Zn
   Zn13       1.0     0.972222     0.083333     0.064605    Uiso  ? Zn
   Zn13       1.0     0.972222     0.333333     0.064605    Uiso  ? Zn
   Zn13       1.0     0.972222     0.583333     0.064605    Uiso  ? Zn
   Zn13       1.0     0.972222     0.833333     0.064605    Uiso  ? Zn
   Zn14       1.0     0.305556     0.083333     0.175357    Uiso  ? Zn
   Zn14       1.0     0.305556     0.333333     0.175357    Uiso  ? Zn
   Zn14       1.0     0.305556     0.583333     0.175357    Uiso  ? Zn
   Zn14       1.0     0.305556     0.833333     0.175357    Uiso  ? Zn
   Zn14       1.0     0.638889     0.083333     0.175357    Uiso  ? Zn
   Zn14       1.0     0.638889     0.333333     0.175357    Uiso  ? Zn
   Zn14       1.0     0.638889     0.583333     0.175357    Uiso  ? Zn
   Zn14       1.0     0.638889     0.833333     0.175357    Uiso  ? Zn
   Zn14       1.0     0.972222     0.083333     0.175357    Uiso  ? Zn
   Zn14       1.0     0.972222     0.333333     0.175357    Uiso  ? Zn
   Zn14       1.0     0.972222     0.583333     0.175357    Uiso  ? Zn
   Zn14       1.0     0.972222     0.833333     0.175357    Uiso  ? Zn
   Zn15       1.0     0.305556     0.083333     0.286108    Uiso  ? Zn
   Zn15       1.0     0.305556     0.333333     0.286108    Uiso  ? Zn
   Zn15       1.0     0.305556     0.583333     0.286108    Uiso  ? Zn
   Zn15       1.0     0.305556     0.833333     0.286108    Uiso  ? Zn
   Zn15       1.0     0.638889     0.083333     0.286108    Uiso  ? Zn
   Zn15       1.0     0.638889     0.333333     0.286108    Uiso  ? Zn
   Zn15       1.0     0.638889     0.583333     0.286108    Uiso  ? Zn
   Zn15       1.0     0.638889     0.833333     0.286108    Uiso  ? Zn
   Zn15       1.0     0.972222     0.083333     0.286108    Uiso  ? Zn
   Zn15       1.0     0.972222     0.333333     0.286108    Uiso  ? Zn
   Zn15       1.0     0.972222     0.583333     0.286108    Uiso  ? Zn
   Zn15       1.0     0.972222     0.833333     0.286108    Uiso  ? Zn
   Zn16       1.0     0.027778     0.166667     0.046146    Uiso  ? Zn
   Zn16       1.0     0.027778     0.416667     0.046146    Uiso  ? Zn
   Zn16       1.0     0.027778     0.666667     0.046146    Uiso  ? Zn
   Zn16       1.0     0.027778     0.916667     0.046146    Uiso  ? Zn
   Zn16       1.0     0.361111     0.166667     0.046146    Uiso  ? Zn
   Zn16       1.0     0.361111     0.416667     0.046146    Uiso  ? Zn
   Zn16       1.0     0.361111     0.666667     0.046146    Uiso  ? Zn
   Zn16       1.0     0.361111     0.916667     0.046146    Uiso  ? Zn
   Zn16       1.0     0.694444     0.166667     0.046146    Uiso  ? Zn
   Zn16       1.0     0.694444     0.416667     0.046146    Uiso  ? Zn
   Zn16       1.0     0.694444     0.666667     0.046146    Uiso  ? Zn
   Zn16       1.0     0.694444     0.916667     0.046146    Uiso  ? Zn
   Zn17       1.0     0.027778     0.166667     0.156898    Uiso  ? Zn
   Zn17       1.0     0.027778     0.416667     0.156898    Uiso  ? Zn
   Zn17       1.0     0.027778     0.666667     0.156898    Uiso  ? Zn
   Zn17       1.0     0.027778     0.916667     0.156898    Uiso  ? Zn
   Zn17       1.0     0.361111     0.166667     0.156898    Uiso  ? Zn
   Zn17       1.0     0.361111     0.416667     0.156898    Uiso  ? Zn
   Zn17       1.0     0.361111     0.666667     0.156898    Uiso  ? Zn
   Zn17       1.0     0.361111     0.916667     0.156898    Uiso  ? Zn
   Zn17       1.0     0.694444     0.166667     0.156898    Uiso  ? Zn
   Zn17       1.0     0.694444     0.416667     0.156898    Uiso  ? Zn
   Zn17       1.0     0.694444     0.666667     0.156898    Uiso  ? Zn
   Zn17       1.0     0.694444     0.916667     0.156898    Uiso  ? Zn
   Zn18       1.0     0.027778     0.166667     0.267649    Uiso  ? Zn
   Zn18       1.0     0.027778     0.416667     0.267649    Uiso  ? Zn
   Zn18       1.0     0.027778     0.666667     0.267649    Uiso  ? Zn
   Zn18       1.0     0.027778     0.916667     0.267649    Uiso  ? Zn
   Zn18       1.0     0.361111     0.166667     0.267649    Uiso  ? Zn
   Zn18       1.0     0.361111     0.416667     0.267649    Uiso  ? Zn
   Zn18       1.0     0.361111     0.666667     0.267649    Uiso  ? Zn
   Zn18       1.0     0.361111     0.916667     0.267649    Uiso  ? Zn
   Zn18       1.0     0.694444     0.166667     0.267649    Uiso  ? Zn
   Zn18       1.0     0.694444     0.416667     0.267649    Uiso  ? Zn
   Zn18       1.0     0.694444     0.666667     0.267649    Uiso  ? Zn
   Zn18       1.0     0.694444     0.916667     0.267649    Uiso  ? Zn
   Zn19       1.0     0.138889     0.083333     0.009229    Uiso  ? Zn
   Zn19       1.0     0.138889     0.333333     0.009229    Uiso  ? Zn
   Zn19       1.0     0.138889     0.583333     0.009229    Uiso  ? Zn
   Zn19       1.0     0.138889     0.833333     0.009229    Uiso  ? Zn
   Zn19       1.0     0.472222     0.083333     0.009229    Uiso  ? Zn
   Zn19       1.0     0.472222     0.333333     0.009229    Uiso  ? Zn
   Zn19       1.0     0.472222     0.583333     0.009229    Uiso  ? Zn
   Zn19       1.0     0.472222     0.833333     0.009229    Uiso  ? Zn
   Zn19       1.0     0.805556     0.083333     0.009229    Uiso  ? Zn
   Zn19       1.0     0.805556     0.333333     0.009229    Uiso  ? Zn
   Zn19       1.0     0.805556     0.583333     0.009229    Uiso  ? Zn
   Zn19       1.0     0.805556     0.833333     0.009229    Uiso  ? Zn
   Zn20       1.0     0.138889     0.083333     0.119981    Uiso  ? Zn
   Zn20       1.0     0.138889     0.333333     0.119981    Uiso  ? Zn
   Zn20       1.0     0.138889     0.583333     0.119981    Uiso  ? Zn
   Zn20       1.0     0.138889     0.833333     0.119981    Uiso  ? Zn
   Zn20       1.0     0.472222     0.083333     0.119981    Uiso  ? Zn
   Zn20       1.0     0.472222     0.333333     0.119981    Uiso  ? Zn
   Zn20       1.0     0.472222     0.583333     0.119981    Uiso  ? Zn
   Zn20       1.0     0.472222     0.833333     0.119981    Uiso  ? Zn
   Zn20       1.0     0.805556     0.083333     0.119981    Uiso  ? Zn
   Zn20       1.0     0.805556     0.333333     0.119981    Uiso  ? Zn
   Zn20       1.0     0.805556     0.583333     0.119981    Uiso  ? Zn
   Zn20       1.0     0.805556     0.833333     0.119981    Uiso  ? Zn
   Zn21       1.0     0.138889     0.083333     0.230732    Uiso  ? Zn
   Zn21       1.0     0.138889     0.333333     0.230732    Uiso  ? Zn
   Zn21       1.0     0.138889     0.583333     0.230732    Uiso  ? Zn
   Zn21       1.0     0.138889     0.833333     0.230732    Uiso  ? Zn
   Zn21       1.0     0.472222     0.083333     0.230732    Uiso  ? Zn
   Zn21       1.0     0.472222     0.333333     0.230732    Uiso  ? Zn
   Zn21       1.0     0.472222     0.583333     0.230732    Uiso  ? Zn
   Zn21       1.0     0.472222     0.833333     0.230732    Uiso  ? Zn
   Zn21       1.0     0.805556     0.083333     0.230732    Uiso  ? Zn
   Zn21       1.0     0.805556     0.333333     0.230732    Uiso  ? Zn
   Zn21       1.0     0.805556     0.583333     0.230732    Uiso  ? Zn
   Zn21       1.0     0.805556     0.833333     0.230732    Uiso  ? Zn
   Zn22       1.0     0.194444     0.166667     0.101522    Uiso  ? Zn
   Zn22       1.0     0.194444     0.416667     0.101522    Uiso  ? Zn
   Zn22       1.0     0.194444     0.666667     0.101522    Uiso  ? Zn
   Zn22       1.0     0.194444     0.916667     0.101522    Uiso  ? Zn
   Zn22       1.0     0.527778     0.166667     0.101522    Uiso  ? Zn
   Zn22       1.0     0.527778     0.416667     0.101522    Uiso  ? Zn
   Zn22       1.0     0.527778     0.666667     0.101522    Uiso  ? Zn
   Zn22       1.0     0.527778     0.916667     0.101522    Uiso  ? Zn
   Zn22       1.0     0.861111     0.166667     0.101522    Uiso  ? Zn
   Zn22       1.0     0.861111     0.416667     0.101522    Uiso  ? Zn
   Zn22       1.0     0.861111     0.666667     0.101522    Uiso  ? Zn
   Zn22       1.0     0.861111     0.916667     0.101522    Uiso  ? Zn
   Zn23       1.0     0.194444     0.166667     0.212274    Uiso  ? Zn
   Zn23       1.0     0.194444     0.416667     0.212274    Uiso  ? Zn
   Zn23       1.0     0.194444     0.666667     0.212274    Uiso  ? Zn
   Zn23       1.0     0.194444     0.916667     0.212274    Uiso  ? Zn
   Zn23       1.0     0.527778     0.166667     0.212274    Uiso  ? Zn
   Zn23       1.0     0.527778     0.416667     0.212274    Uiso  ? Zn
   Zn23       1.0     0.527778     0.666667     0.212274    Uiso  ? Zn
   Zn23       1.0     0.527778     0.916667     0.212274    Uiso  ? Zn
   Zn23       1.0     0.861111     0.166667     0.212274    Uiso  ? Zn
   Zn23       1.0     0.861111     0.416667     0.212274    Uiso  ? Zn
   Zn23       1.0     0.861111     0.666667     0.212274    Uiso  ? Zn
   Zn23       1.0     0.861111     0.916667     0.212274    Uiso  ? Zn
   Zn24       1.0     0.194444     0.166667     0.323025    Uiso  ? Zn
   Zn24       1.0     0.194444     0.416667     0.323025    Uiso  ? Zn
   Zn24       1.0     0.194444     0.666667     0.323025    Uiso  ? Zn
   Zn24       1.0     0.194444     0.916667     0.323025    Uiso  ? Zn
   Zn24       1.0     0.527778     0.166667     0.323025    Uiso  ? Zn
   Zn24       1.0     0.527778     0.416667     0.323025    Uiso  ? Zn
   Zn24       1.0     0.527778     0.666667     0.323025    Uiso  ? Zn
   Zn24       1.0     0.527778     0.916667     0.323025    Uiso  ? Zn
   Zn24       1.0     0.861111     0.166667     0.323025    Uiso  ? Zn
   Zn24       1.0     0.861111     0.416667     0.323025    Uiso  ? Zn
   Zn24       1.0     0.861111     0.666667     0.323025    Uiso  ? Zn
   Zn24       1.0     0.861111     0.916667     0.323025    Uiso  ? Zn
