# CIF file generated by openbabel 2.3.90, see http://openbabel.sf.net
data_I
_chemical_name_common ''
_cell_length_a 10.4574
_cell_length_b 10.4574
_cell_length_c 24.8732
_cell_angle_alpha 90
_cell_angle_beta 90
_cell_angle_gamma 120
_space_group_name_H-M_alt 'P 1'
_space_group_name_Hall 'P 1'
loop_
    _symmetry_equiv_pos_as_xyz
    x,y,z
loop_
    _atom_site_label
    _atom_site_type_symbol
    _atom_site_fract_x
    _atom_site_fract_y
    _atom_site_fract_z
    _atom_site_occupancy
    Zn0     Zn   0.08333   0.16667   0.04898   1.000
    Zn1     Zn   0.08333   0.41667   0.04898   1.000
    Zn2     Zn   0.08333   0.66667   0.04898   1.000
    Zn3     Zn   0.08333   0.91667   0.04898   1.000
    Zn4     Zn   0.33333   0.16667   0.04898   1.000
    Zn5     Zn   0.33333   0.41667   0.04898   1.000
    Zn6     Zn   0.33333   0.66667   0.04898   1.000
    Zn7     Zn   0.33333   0.91667   0.04898   1.000
    Zn8     Zn   0.58333   0.16667   0.04898   1.000
    Zn9     Zn   0.58333   0.41667   0.04898   1.000
    Zn10    Zn   0.58333   0.66667   0.04898   1.000
    Zn11    Zn   0.58333   0.91667   0.04898   1.000
    Zn12    Zn   0.83333   0.16667   0.04898   1.000
    Zn13    Zn   0.83333   0.41667   0.04898   1.000
    Zn14    Zn   0.83333   0.66667   0.04898   1.000
    Zn15    Zn   0.83333   0.91667   0.04898   1.000
    Zn16    Zn   0.08333   0.16667   0.14694   1.000
    Zn17    Zn   0.08333   0.41667   0.14694   1.000
    Zn18    Zn   0.08333   0.66667   0.14694   1.000
    Zn19    Zn   0.08333   0.91667   0.14694   1.000
    Zn20    Zn   0.33333   0.16667   0.14694   1.000
    Zn21    Zn   0.33333   0.41667   0.14694   1.000
    Zn22    Zn   0.33333   0.66667   0.14694   1.000
    Zn23    Zn   0.33333   0.91667   0.14694   1.000
    Zn24    Zn   0.58333   0.16667   0.14694   1.000
    Zn25    Zn   0.58333   0.41667   0.14694   1.000
    Zn26    Zn   0.58333   0.66667   0.14694   1.000
    Zn27    Zn   0.58333   0.91667   0.14694   1.000
    Zn28    Zn   0.83333   0.16667   0.14694   1.000
    Zn29    Zn   0.83333   0.41667   0.14694   1.000
    Zn30    Zn   0.83333   0.66667   0.14694   1.000
    Zn31    Zn   0.83333   0.91667   0.14694   1.000
    Zn32    Zn   0.16667   0.08333   0.04898   1.000
    Zn33    Zn   0.16667   0.33333   0.04898   1.000
    Zn34    Zn   0.16667   0.58333   0.04898   1.000
    Zn35    Zn   0.16667   0.83333   0.04898   1.000
    Zn36    Zn   0.41667   0.08333   0.04898   1.000
    Zn37    Zn   0.41667   0.33333   0.04898   1.000
    Zn38    Zn   0.41667   0.58333   0.04898   1.000
    Zn39    Zn   0.41667   0.83333   0.04898   1.000
    Zn40    Zn   0.66667   0.08333   0.04898   1.000
    Zn41    Zn   0.66667   0.33333   0.04898   1.000
    Zn42    Zn   0.66667   0.58333   0.04898   1.000
    Zn43    Zn   0.66667   0.83333   0.04898   1.000
    Zn44    Zn   0.91667   0.08333   0.04898   1.000
    Zn45    Zn   0.91667   0.33333   0.04898   1.000
    Zn46    Zn   0.91667   0.58333   0.04898   1.000
    Zn47    Zn   0.91667   0.83333   0.04898   1.000
    Zn48    Zn   0.16667   0.08333   0.14694   1.000
    Zn49    Zn   0.16667   0.33333   0.14694   1.000
    Zn50    Zn   0.16667   0.58333   0.14694   1.000
    Zn51    Zn   0.16667   0.83333   0.14694   1.000
    Zn52    Zn   0.41667   0.08333   0.14694   1.000
    Zn53    Zn   0.41667   0.33333   0.14694   1.000
    Zn54    Zn   0.41667   0.58333   0.14694   1.000
    Zn55    Zn   0.41667   0.83333   0.14694   1.000
    Zn56    Zn   0.66667   0.08333   0.14694   1.000
    Zn57    Zn   0.66667   0.33333   0.14694   1.000
    Zn58    Zn   0.66667   0.58333   0.14694   1.000
    Zn59    Zn   0.66667   0.83333   0.14694   1.000
    Zn60    Zn   0.91667   0.08333   0.14694   1.000
    Zn61    Zn   0.91667   0.33333   0.14694   1.000
    Zn62    Zn   0.91667   0.58333   0.14694   1.000
    Zn63    Zn   0.91667   0.83333   0.14694   1.000
    O64     O    0.54008   0.48752   0.22263   1.000
    H65     H    0.49870   0.38297   0.22978   1.000
    H66     H    0.53421   0.52854   0.25691   1.000
