
#======================================================================
# CRYSTAL DATA
#----------------------------------------------------------------------
data_VESTA_phase_1

_chemical_name_common                  'Zn2'
_cell_length_a                         13.071800
_cell_length_b                         13.071800
_cell_length_c                         32.182903
_cell_angle_alpha                      90.000000
_cell_angle_beta                       90.000000
_cell_angle_gamma                      120.000000
_cell_volume                           4762.408627
_space_group_name_H-M_alt              'P 1'
_space_group_IT_number                 1

loop_
_space_group_symop_operation_xyz
   'x, y, z'

loop_
   _atom_site_label
   _atom_site_occupancy
   _atom_site_fract_x
   _atom_site_fract_y
   _atom_site_fract_z
   _atom_site_adp_type
   _atom_site_U_iso_or_equiv
   _atom_site_type_symbol
   Zn1        1.0     0.066667     0.133333     0.037855    Uiso  ? Zn
   Zn1        1.0     0.066667     0.333333     0.037855    Uiso  ? Zn
   Zn1        1.0     0.066667     0.533333     0.037855    Uiso  ? Zn
   Zn1        1.0     0.066667     0.733333     0.037855    Uiso  ? Zn
   Zn1        1.0     0.066667     0.933333     0.037855    Uiso  ? Zn
   Zn1        1.0     0.266667     0.133333     0.037855    Uiso  ? Zn
   Zn1        1.0     0.266667     0.333333     0.037855    Uiso  ? Zn
   Zn1        1.0     0.266667     0.533333     0.037855    Uiso  ? Zn
   Zn1        1.0     0.266667     0.733333     0.037855    Uiso  ? Zn
   Zn1        1.0     0.266667     0.933333     0.037855    Uiso  ? Zn
   Zn1        1.0     0.466667     0.133333     0.037855    Uiso  ? Zn
   Zn1        1.0     0.466667     0.333333     0.037855    Uiso  ? Zn
   Zn1        1.0     0.466667     0.533333     0.037855    Uiso  ? Zn
   Zn1        1.0     0.466667     0.733333     0.037855    Uiso  ? Zn
   Zn1        1.0     0.466667     0.933333     0.037855    Uiso  ? Zn
   Zn1        1.0     0.666667     0.133333     0.037855    Uiso  ? Zn
   Zn1        1.0     0.666667     0.333333     0.037855    Uiso  ? Zn
   Zn1        1.0     0.666667     0.533333     0.037855    Uiso  ? Zn
   Zn1        1.0     0.666667     0.733333     0.037855    Uiso  ? Zn
   Zn1        1.0     0.666667     0.933333     0.037855    Uiso  ? Zn
   Zn1        1.0     0.866667     0.133333     0.037855    Uiso  ? Zn
   Zn1        1.0     0.866667     0.333333     0.037855    Uiso  ? Zn
   Zn1        1.0     0.866667     0.533333     0.037855    Uiso  ? Zn
   Zn1        1.0     0.866667     0.733333     0.037855    Uiso  ? Zn
   Zn1        1.0     0.866667     0.933333     0.037855    Uiso  ? Zn
   Zn2        1.0     0.133333     0.066667     0.340697    Uiso  ? Zn
   Zn2        1.0     0.133333     0.266667     0.340697    Uiso  ? Zn
   Zn2        1.0     0.133333     0.466667     0.340697    Uiso  ? Zn
   Zn2        1.0     0.133333     0.666667     0.340697    Uiso  ? Zn
   Zn2        1.0     0.133333     0.866667     0.340697    Uiso  ? Zn
   Zn2        1.0     0.333333     0.066667     0.340697    Uiso  ? Zn
   Zn2        1.0     0.333333     0.266667     0.340697    Uiso  ? Zn
   Zn2        1.0     0.333333     0.466667     0.340697    Uiso  ? Zn
   Zn2        1.0     0.333333     0.666667     0.340697    Uiso  ? Zn
   Zn2        1.0     0.333333     0.866667     0.340697    Uiso  ? Zn
   Zn2        1.0     0.533333     0.066667     0.340697    Uiso  ? Zn
   Zn2        1.0     0.533333     0.266667     0.340697    Uiso  ? Zn
   Zn2        1.0     0.533333     0.466667     0.340697    Uiso  ? Zn
   Zn2        1.0     0.533333     0.666667     0.340697    Uiso  ? Zn
   Zn2        1.0     0.533333     0.866667     0.340697    Uiso  ? Zn
   Zn2        1.0     0.733333     0.066667     0.340697    Uiso  ? Zn
   Zn2        1.0     0.733333     0.266667     0.340697    Uiso  ? Zn
   Zn2        1.0     0.733333     0.466667     0.340697    Uiso  ? Zn
   Zn2        1.0     0.733333     0.666667     0.340697    Uiso  ? Zn
   Zn2        1.0     0.733333     0.866667     0.340697    Uiso  ? Zn
   Zn2        1.0     0.933333     0.066667     0.340697    Uiso  ? Zn
   Zn2        1.0     0.933333     0.266667     0.340697    Uiso  ? Zn
   Zn2        1.0     0.933333     0.466667     0.340697    Uiso  ? Zn
   Zn2        1.0     0.933333     0.666667     0.340697    Uiso  ? Zn
   Zn2        1.0     0.933333     0.866667     0.340697    Uiso  ? Zn
   Zn3        1.0     0.133333     0.066667     0.113566    Uiso  ? Zn
   Zn3        1.0     0.133333     0.266667     0.113566    Uiso  ? Zn
   Zn3        1.0     0.133333     0.466667     0.113566    Uiso  ? Zn
   Zn3        1.0     0.133333     0.666667     0.113566    Uiso  ? Zn
   Zn3        1.0     0.133333     0.866667     0.113566    Uiso  ? Zn
   Zn3        1.0     0.333333     0.066667     0.113566    Uiso  ? Zn
   Zn3        1.0     0.333333     0.266667     0.113566    Uiso  ? Zn
   Zn3        1.0     0.333333     0.466667     0.113566    Uiso  ? Zn
   Zn3        1.0     0.333333     0.666667     0.113566    Uiso  ? Zn
   Zn3        1.0     0.333333     0.866667     0.113566    Uiso  ? Zn
   Zn3        1.0     0.533333     0.066667     0.113566    Uiso  ? Zn
   Zn3        1.0     0.533333     0.266667     0.113566    Uiso  ? Zn
   Zn3        1.0     0.533333     0.466667     0.113566    Uiso  ? Zn
   Zn3        1.0     0.533333     0.666667     0.113566    Uiso  ? Zn
   Zn3        1.0     0.533333     0.866667     0.113566    Uiso  ? Zn
   Zn3        1.0     0.733333     0.066667     0.113566    Uiso  ? Zn
   Zn3        1.0     0.733333     0.266667     0.113566    Uiso  ? Zn
   Zn3        1.0     0.733333     0.466667     0.113566    Uiso  ? Zn
   Zn3        1.0     0.733333     0.666667     0.113566    Uiso  ? Zn
   Zn3        1.0     0.733333     0.866667     0.113566    Uiso  ? Zn
   Zn3        1.0     0.933333     0.066667     0.113566    Uiso  ? Zn
   Zn3        1.0     0.933333     0.266667     0.113566    Uiso  ? Zn
   Zn3        1.0     0.933333     0.466667     0.113566    Uiso  ? Zn
   Zn3        1.0     0.933333     0.666667     0.113566    Uiso  ? Zn
   Zn3        1.0     0.933333     0.866667     0.113566    Uiso  ? Zn
   Zn4        1.0     0.066667     0.133333     0.189276    Uiso  ? Zn
   Zn4        1.0     0.066667     0.333333     0.189276    Uiso  ? Zn
   Zn4        1.0     0.066667     0.533333     0.189276    Uiso  ? Zn
   Zn4        1.0     0.066667     0.733333     0.189276    Uiso  ? Zn
   Zn4        1.0     0.066667     0.933333     0.189276    Uiso  ? Zn
   Zn4        1.0     0.266667     0.133333     0.189276    Uiso  ? Zn
   Zn4        1.0     0.266667     0.333333     0.189276    Uiso  ? Zn
   Zn4        1.0     0.266667     0.533333     0.189276    Uiso  ? Zn
   Zn4        1.0     0.266667     0.733333     0.189276    Uiso  ? Zn
   Zn4        1.0     0.266667     0.933333     0.189276    Uiso  ? Zn
   Zn4        1.0     0.466667     0.133333     0.189276    Uiso  ? Zn
   Zn4        1.0     0.466667     0.333333     0.189276    Uiso  ? Zn
   Zn4        1.0     0.466667     0.533333     0.189276    Uiso  ? Zn
   Zn4        1.0     0.466667     0.733333     0.189276    Uiso  ? Zn
   Zn4        1.0     0.466667     0.933333     0.189276    Uiso  ? Zn
   Zn4        1.0     0.666667     0.133333     0.189276    Uiso  ? Zn
   Zn4        1.0     0.666667     0.333333     0.189276    Uiso  ? Zn
   Zn4        1.0     0.666667     0.533333     0.189276    Uiso  ? Zn
   Zn4        1.0     0.666667     0.733333     0.189276    Uiso  ? Zn
   Zn4        1.0     0.666667     0.933333     0.189276    Uiso  ? Zn
   Zn4        1.0     0.866667     0.133333     0.189276    Uiso  ? Zn
   Zn4        1.0     0.866667     0.333333     0.189276    Uiso  ? Zn
   Zn4        1.0     0.866667     0.533333     0.189276    Uiso  ? Zn
   Zn4        1.0     0.866667     0.733333     0.189276    Uiso  ? Zn
   Zn4        1.0     0.866667     0.933333     0.189276    Uiso  ? Zn
   Zn5        1.0     0.133333     0.066667     0.189276    Uiso  ? Zn
   Zn5        1.0     0.133333     0.266667     0.189276    Uiso  ? Zn
   Zn5        1.0     0.133333     0.466667     0.189276    Uiso  ? Zn
   Zn5        1.0     0.133333     0.666667     0.189276    Uiso  ? Zn
   Zn5        1.0     0.133333     0.866667     0.189276    Uiso  ? Zn
   Zn5        1.0     0.333333     0.066667     0.189276    Uiso  ? Zn
   Zn5        1.0     0.333333     0.266667     0.189276    Uiso  ? Zn
   Zn5        1.0     0.333333     0.466667     0.189276    Uiso  ? Zn
   Zn5        1.0     0.333333     0.666667     0.189276    Uiso  ? Zn
   Zn5        1.0     0.333333     0.866667     0.189276    Uiso  ? Zn
   Zn5        1.0     0.533333     0.066667     0.189276    Uiso  ? Zn
   Zn5        1.0     0.533333     0.266667     0.189276    Uiso  ? Zn
   Zn5        1.0     0.533333     0.466667     0.189276    Uiso  ? Zn
   Zn5        1.0     0.533333     0.666667     0.189276    Uiso  ? Zn
   Zn5        1.0     0.533333     0.866667     0.189276    Uiso  ? Zn
   Zn5        1.0     0.733333     0.066667     0.189276    Uiso  ? Zn
   Zn5        1.0     0.733333     0.266667     0.189276    Uiso  ? Zn
   Zn5        1.0     0.733333     0.466667     0.189276    Uiso  ? Zn
   Zn5        1.0     0.733333     0.666667     0.189276    Uiso  ? Zn
   Zn5        1.0     0.733333     0.866667     0.189276    Uiso  ? Zn
   Zn5        1.0     0.933333     0.066667     0.189276    Uiso  ? Zn
   Zn5        1.0     0.933333     0.266667     0.189276    Uiso  ? Zn
   Zn5        1.0     0.933333     0.466667     0.189276    Uiso  ? Zn
   Zn5        1.0     0.933333     0.666667     0.189276    Uiso  ? Zn
   Zn5        1.0     0.933333     0.866667     0.189276    Uiso  ? Zn
   Zn6        1.0     0.133333     0.066667     0.264986    Uiso  ? Zn
   Zn6        1.0     0.133333     0.266667     0.264986    Uiso  ? Zn
   Zn6        1.0     0.133333     0.466667     0.264986    Uiso  ? Zn
   Zn6        1.0     0.133333     0.666667     0.264986    Uiso  ? Zn
   Zn6        1.0     0.133333     0.866667     0.264986    Uiso  ? Zn
   Zn6        1.0     0.333333     0.066667     0.264986    Uiso  ? Zn
   Zn6        1.0     0.333333     0.266667     0.264986    Uiso  ? Zn
   Zn6        1.0     0.333333     0.466667     0.264986    Uiso  ? Zn
   Zn6        1.0     0.333333     0.666667     0.264986    Uiso  ? Zn
   Zn6        1.0     0.333333     0.866667     0.264986    Uiso  ? Zn
   Zn6        1.0     0.533333     0.066667     0.264986    Uiso  ? Zn
   Zn6        1.0     0.533333     0.266667     0.264986    Uiso  ? Zn
   Zn6        1.0     0.533333     0.466667     0.264986    Uiso  ? Zn
   Zn6        1.0     0.533333     0.666667     0.264986    Uiso  ? Zn
   Zn6        1.0     0.533333     0.866667     0.264986    Uiso  ? Zn
   Zn6        1.0     0.733333     0.066667     0.264986    Uiso  ? Zn
   Zn6        1.0     0.733333     0.266667     0.264986    Uiso  ? Zn
   Zn6        1.0     0.733333     0.466667     0.264986    Uiso  ? Zn
   Zn6        1.0     0.733333     0.666667     0.264986    Uiso  ? Zn
   Zn6        1.0     0.733333     0.866667     0.264986    Uiso  ? Zn
   Zn6        1.0     0.933333     0.066667     0.264986    Uiso  ? Zn
   Zn6        1.0     0.933333     0.266667     0.264986    Uiso  ? Zn
   Zn6        1.0     0.933333     0.466667     0.264986    Uiso  ? Zn
   Zn6        1.0     0.933333     0.666667     0.264986    Uiso  ? Zn
   Zn6        1.0     0.933333     0.866667     0.264986    Uiso  ? Zn
   Zn7        1.0     0.066667     0.133333     0.264986    Uiso  ? Zn
   Zn7        1.0     0.066667     0.333333     0.264986    Uiso  ? Zn
   Zn7        1.0     0.066667     0.533333     0.264986    Uiso  ? Zn
   Zn7        1.0     0.066667     0.733333     0.264986    Uiso  ? Zn
   Zn7        1.0     0.066667     0.933333     0.264986    Uiso  ? Zn
   Zn7        1.0     0.266667     0.133333     0.264986    Uiso  ? Zn
   Zn7        1.0     0.266667     0.333333     0.264986    Uiso  ? Zn
   Zn7        1.0     0.266667     0.533333     0.264986    Uiso  ? Zn
   Zn7        1.0     0.266667     0.733333     0.264986    Uiso  ? Zn
   Zn7        1.0     0.266667     0.933333     0.264986    Uiso  ? Zn
   Zn7        1.0     0.466667     0.133333     0.264986    Uiso  ? Zn
   Zn7        1.0     0.466667     0.333333     0.264986    Uiso  ? Zn
   Zn7        1.0     0.466667     0.533333     0.264986    Uiso  ? Zn
   Zn7        1.0     0.466667     0.733333     0.264986    Uiso  ? Zn
   Zn7        1.0     0.466667     0.933333     0.264986    Uiso  ? Zn
   Zn7        1.0     0.666667     0.133333     0.264986    Uiso  ? Zn
   Zn7        1.0     0.666667     0.333333     0.264986    Uiso  ? Zn
   Zn7        1.0     0.666667     0.533333     0.264986    Uiso  ? Zn
   Zn7        1.0     0.666667     0.733333     0.264986    Uiso  ? Zn
   Zn7        1.0     0.666667     0.933333     0.264986    Uiso  ? Zn
   Zn7        1.0     0.866667     0.133333     0.264986    Uiso  ? Zn
   Zn7        1.0     0.866667     0.333333     0.264986    Uiso  ? Zn
   Zn7        1.0     0.866667     0.533333     0.264986    Uiso  ? Zn
   Zn7        1.0     0.866667     0.733333     0.264986    Uiso  ? Zn
   Zn7        1.0     0.866667     0.933333     0.264986    Uiso  ? Zn
   Zn8        1.0     0.066667     0.133333     0.340697    Uiso  ? Zn
   Zn8        1.0     0.066667     0.333333     0.340697    Uiso  ? Zn
   Zn8        1.0     0.066667     0.533333     0.340697    Uiso  ? Zn
   Zn8        1.0     0.066667     0.733333     0.340697    Uiso  ? Zn
   Zn8        1.0     0.066667     0.933333     0.340697    Uiso  ? Zn
   Zn8        1.0     0.266667     0.133333     0.340697    Uiso  ? Zn
   Zn8        1.0     0.266667     0.333333     0.340697    Uiso  ? Zn
   Zn8        1.0     0.266667     0.533333     0.340697    Uiso  ? Zn
   Zn8        1.0     0.266667     0.733333     0.340697    Uiso  ? Zn
   Zn8        1.0     0.266667     0.933333     0.340697    Uiso  ? Zn
   Zn8        1.0     0.466667     0.133333     0.340697    Uiso  ? Zn
   Zn8        1.0     0.466667     0.333333     0.340697    Uiso  ? Zn
   Zn8        1.0     0.466667     0.533333     0.340697    Uiso  ? Zn
   Zn8        1.0     0.466667     0.733333     0.340697    Uiso  ? Zn
   Zn8        1.0     0.466667     0.933333     0.340697    Uiso  ? Zn
   Zn8        1.0     0.666667     0.133333     0.340697    Uiso  ? Zn
   Zn8        1.0     0.666667     0.333333     0.340697    Uiso  ? Zn
   Zn8        1.0     0.666667     0.533333     0.340697    Uiso  ? Zn
   Zn8        1.0     0.666667     0.733333     0.340697    Uiso  ? Zn
   Zn8        1.0     0.666667     0.933333     0.340697    Uiso  ? Zn
   Zn8        1.0     0.866667     0.133333     0.340697    Uiso  ? Zn
   Zn8        1.0     0.866667     0.333333     0.340697    Uiso  ? Zn
   Zn8        1.0     0.866667     0.533333     0.340697    Uiso  ? Zn
   Zn8        1.0     0.866667     0.733333     0.340697    Uiso  ? Zn
   Zn8        1.0     0.866667     0.933333     0.340697    Uiso  ? Zn
   Zn9        1.0     0.133333     0.066667     0.037855    Uiso  ? Zn
   Zn9        1.0     0.133333     0.266667     0.037855    Uiso  ? Zn
   Zn9        1.0     0.133333     0.466667     0.037855    Uiso  ? Zn
   Zn9        1.0     0.133333     0.666667     0.037855    Uiso  ? Zn
   Zn9        1.0     0.133333     0.866667     0.037855    Uiso  ? Zn
   Zn9        1.0     0.333333     0.066667     0.037855    Uiso  ? Zn
   Zn9        1.0     0.333333     0.266667     0.037855    Uiso  ? Zn
   Zn9        1.0     0.333333     0.466667     0.037855    Uiso  ? Zn
   Zn9        1.0     0.333333     0.666667     0.037855    Uiso  ? Zn
   Zn9        1.0     0.333333     0.866667     0.037855    Uiso  ? Zn
   Zn9        1.0     0.533333     0.066667     0.037855    Uiso  ? Zn
   Zn9        1.0     0.533333     0.266667     0.037855    Uiso  ? Zn
   Zn9        1.0     0.533333     0.466667     0.037855    Uiso  ? Zn
   Zn9        1.0     0.533333     0.666667     0.037855    Uiso  ? Zn
   Zn9        1.0     0.533333     0.866667     0.037855    Uiso  ? Zn
   Zn9        1.0     0.733333     0.066667     0.037855    Uiso  ? Zn
   Zn9        1.0     0.733333     0.266667     0.037855    Uiso  ? Zn
   Zn9        1.0     0.733333     0.466667     0.037855    Uiso  ? Zn
   Zn9        1.0     0.733333     0.666667     0.037855    Uiso  ? Zn
   Zn9        1.0     0.733333     0.866667     0.037855    Uiso  ? Zn
   Zn9        1.0     0.933333     0.066667     0.037855    Uiso  ? Zn
   Zn9        1.0     0.933333     0.266667     0.037855    Uiso  ? Zn
   Zn9        1.0     0.933333     0.466667     0.037855    Uiso  ? Zn
   Zn9        1.0     0.933333     0.666667     0.037855    Uiso  ? Zn
   Zn9        1.0     0.933333     0.866667     0.037855    Uiso  ? Zn
   Zn10       1.0     0.066667     0.133333     0.113566    Uiso  ? Zn
   Zn10       1.0     0.066667     0.333333     0.113566    Uiso  ? Zn
   Zn10       1.0     0.066667     0.533333     0.113566    Uiso  ? Zn
   Zn10       1.0     0.066667     0.733333     0.113566    Uiso  ? Zn
   Zn10       1.0     0.066667     0.933333     0.113566    Uiso  ? Zn
   Zn10       1.0     0.266667     0.133333     0.113566    Uiso  ? Zn
   Zn10       1.0     0.266667     0.333333     0.113566    Uiso  ? Zn
   Zn10       1.0     0.266667     0.533333     0.113566    Uiso  ? Zn
   Zn10       1.0     0.266667     0.733333     0.113566    Uiso  ? Zn
   Zn10       1.0     0.266667     0.933333     0.113566    Uiso  ? Zn
   Zn10       1.0     0.466667     0.133333     0.113566    Uiso  ? Zn
   Zn10       1.0     0.466667     0.333333     0.113566    Uiso  ? Zn
   Zn10       1.0     0.466667     0.533333     0.113566    Uiso  ? Zn
   Zn10       1.0     0.466667     0.733333     0.113566    Uiso  ? Zn
   Zn10       1.0     0.466667     0.933333     0.113566    Uiso  ? Zn
   Zn10       1.0     0.666667     0.133333     0.113566    Uiso  ? Zn
   Zn10       1.0     0.666667     0.333333     0.113566    Uiso  ? Zn
   Zn10       1.0     0.666667     0.533333     0.113566    Uiso  ? Zn
   Zn10       1.0     0.666667     0.733333     0.113566    Uiso  ? Zn
   Zn10       1.0     0.666667     0.933333     0.113566    Uiso  ? Zn
   Zn10       1.0     0.866667     0.133333     0.113566    Uiso  ? Zn
   Zn10       1.0     0.866667     0.333333     0.113566    Uiso  ? Zn
   Zn10       1.0     0.866667     0.533333     0.113566    Uiso  ? Zn
   Zn10       1.0     0.866667     0.733333     0.113566    Uiso  ? Zn
   Zn10       1.0     0.866667     0.933333     0.113566    Uiso  ? Zn
