
#======================================================================
# CRYSTAL DATA
#----------------------------------------------------------------------
data_VESTA_phase_1

_chemical_name_common                  'Zn2'
_cell_length_a                         17.868830
_cell_length_b                         13.071800
_cell_length_c                         30.216013
_cell_angle_alpha                      97.457085
_cell_angle_beta                       91.429489
_cell_angle_gamma                      68.544960
_cell_volume                           6511.222332
_space_group_name_H-M_alt              'P 1'
_space_group_IT_number                 1

loop_
_space_group_symop_operation_xyz
   'x, y, z'

loop_
   _atom_site_label
   _atom_site_occupancy
   _atom_site_fract_x
   _atom_site_fract_y
   _atom_site_fract_z
   _atom_site_adp_type
   _atom_site_U_iso_or_equiv
   _atom_site_type_symbol
   Zn1        1.0     0.084149     0.060694     0.009229    Uiso  ? Zn
   Zn1        1.0     0.084149     0.260694     0.009229    Uiso  ? Zn
   Zn1        1.0     0.084149     0.460694     0.009229    Uiso  ? Zn
   Zn1        1.0     0.084149     0.660694     0.009229    Uiso  ? Zn
   Zn1        1.0     0.084149     0.860694     0.009229    Uiso  ? Zn
   Zn1        1.0     0.284149     0.060694     0.009229    Uiso  ? Zn
   Zn1        1.0     0.284149     0.260694     0.009229    Uiso  ? Zn
   Zn1        1.0     0.284149     0.460694     0.009229    Uiso  ? Zn
   Zn1        1.0     0.284149     0.660694     0.009229    Uiso  ? Zn
   Zn1        1.0     0.284149     0.860694     0.009229    Uiso  ? Zn
   Zn1        1.0     0.484149     0.060694     0.009229    Uiso  ? Zn
   Zn1        1.0     0.484149     0.260694     0.009229    Uiso  ? Zn
   Zn1        1.0     0.484149     0.460694     0.009229    Uiso  ? Zn
   Zn1        1.0     0.484149     0.660694     0.009229    Uiso  ? Zn
   Zn1        1.0     0.484149     0.860694     0.009229    Uiso  ? Zn
   Zn1        1.0     0.684149     0.060694     0.009229    Uiso  ? Zn
   Zn1        1.0     0.684149     0.260694     0.009229    Uiso  ? Zn
   Zn1        1.0     0.684149     0.460694     0.009229    Uiso  ? Zn
   Zn1        1.0     0.684149     0.660694     0.009229    Uiso  ? Zn
   Zn1        1.0     0.684149     0.860694     0.009229    Uiso  ? Zn
   Zn1        1.0     0.884149     0.060694     0.009229    Uiso  ? Zn
   Zn1        1.0     0.884149     0.260694     0.009229    Uiso  ? Zn
   Zn1        1.0     0.884149     0.460694     0.009229    Uiso  ? Zn
   Zn1        1.0     0.884149     0.660694     0.009229    Uiso  ? Zn
   Zn1        1.0     0.884149     0.860694     0.009229    Uiso  ? Zn
   Zn2        1.0     0.093936     0.989026     0.119981    Uiso  ? Zn
   Zn2        1.0     0.093936     0.189026     0.119981    Uiso  ? Zn
   Zn2        1.0     0.093936     0.389026     0.119981    Uiso  ? Zn
   Zn2        1.0     0.093936     0.589026     0.119981    Uiso  ? Zn
   Zn2        1.0     0.093936     0.789026     0.119981    Uiso  ? Zn
   Zn2        1.0     0.293936     0.989026     0.119981    Uiso  ? Zn
   Zn2        1.0     0.293936     0.189026     0.119981    Uiso  ? Zn
   Zn2        1.0     0.293936     0.389026     0.119981    Uiso  ? Zn
   Zn2        1.0     0.293936     0.589026     0.119981    Uiso  ? Zn
   Zn2        1.0     0.293936     0.789026     0.119981    Uiso  ? Zn
   Zn2        1.0     0.493936     0.989026     0.119981    Uiso  ? Zn
   Zn2        1.0     0.493936     0.189026     0.119981    Uiso  ? Zn
   Zn2        1.0     0.493936     0.389026     0.119981    Uiso  ? Zn
   Zn2        1.0     0.493936     0.589026     0.119981    Uiso  ? Zn
   Zn2        1.0     0.493936     0.789026     0.119981    Uiso  ? Zn
   Zn2        1.0     0.693936     0.989026     0.119981    Uiso  ? Zn
   Zn2        1.0     0.693936     0.189026     0.119981    Uiso  ? Zn
   Zn2        1.0     0.693936     0.389026     0.119981    Uiso  ? Zn
   Zn2        1.0     0.693936     0.589026     0.119981    Uiso  ? Zn
   Zn2        1.0     0.693936     0.789026     0.119981    Uiso  ? Zn
   Zn2        1.0     0.893936     0.989026     0.119981    Uiso  ? Zn
   Zn2        1.0     0.893936     0.189026     0.119981    Uiso  ? Zn
   Zn2        1.0     0.893936     0.389026     0.119981    Uiso  ? Zn
   Zn2        1.0     0.893936     0.589026     0.119981    Uiso  ? Zn
   Zn2        1.0     0.893936     0.789026     0.119981    Uiso  ? Zn
   Zn3        1.0     0.103724     0.917358     0.230732    Uiso  ? Zn
   Zn3        1.0     0.103724     0.117358     0.230732    Uiso  ? Zn
   Zn3        1.0     0.103724     0.317358     0.230732    Uiso  ? Zn
   Zn3        1.0     0.103724     0.517358     0.230732    Uiso  ? Zn
   Zn3        1.0     0.103724     0.717358     0.230732    Uiso  ? Zn
   Zn3        1.0     0.303724     0.917358     0.230732    Uiso  ? Zn
   Zn3        1.0     0.303724     0.117358     0.230732    Uiso  ? Zn
   Zn3        1.0     0.303724     0.317358     0.230732    Uiso  ? Zn
   Zn3        1.0     0.303724     0.517358     0.230732    Uiso  ? Zn
   Zn3        1.0     0.303724     0.717358     0.230732    Uiso  ? Zn
   Zn3        1.0     0.503724     0.917358     0.230732    Uiso  ? Zn
   Zn3        1.0     0.503724     0.117358     0.230732    Uiso  ? Zn
   Zn3        1.0     0.503724     0.317358     0.230732    Uiso  ? Zn
   Zn3        1.0     0.503724     0.517358     0.230732    Uiso  ? Zn
   Zn3        1.0     0.503724     0.717358     0.230732    Uiso  ? Zn
   Zn3        1.0     0.703723     0.917358     0.230732    Uiso  ? Zn
   Zn3        1.0     0.703723     0.117358     0.230732    Uiso  ? Zn
   Zn3        1.0     0.703723     0.317358     0.230732    Uiso  ? Zn
   Zn3        1.0     0.703723     0.517358     0.230732    Uiso  ? Zn
   Zn3        1.0     0.703723     0.717358     0.230732    Uiso  ? Zn
   Zn3        1.0     0.903723     0.917358     0.230732    Uiso  ? Zn
   Zn3        1.0     0.903723     0.117358     0.230732    Uiso  ? Zn
   Zn3        1.0     0.903723     0.317358     0.230732    Uiso  ? Zn
   Zn3        1.0     0.903723     0.517358     0.230732    Uiso  ? Zn
   Zn3        1.0     0.903723     0.717358     0.230732    Uiso  ? Zn
   Zn4        1.0     0.125638     0.067637     0.101522    Uiso  ? Zn
   Zn4        1.0     0.125638     0.267637     0.101522    Uiso  ? Zn
   Zn4        1.0     0.125638     0.467637     0.101522    Uiso  ? Zn
   Zn4        1.0     0.125638     0.667637     0.101522    Uiso  ? Zn
   Zn4        1.0     0.125638     0.867638     0.101522    Uiso  ? Zn
   Zn4        1.0     0.325638     0.067637     0.101522    Uiso  ? Zn
   Zn4        1.0     0.325638     0.267637     0.101522    Uiso  ? Zn
   Zn4        1.0     0.325638     0.467637     0.101522    Uiso  ? Zn
   Zn4        1.0     0.325638     0.667637     0.101522    Uiso  ? Zn
   Zn4        1.0     0.325638     0.867638     0.101522    Uiso  ? Zn
   Zn4        1.0     0.525638     0.067637     0.101522    Uiso  ? Zn
   Zn4        1.0     0.525638     0.267637     0.101522    Uiso  ? Zn
   Zn4        1.0     0.525638     0.467637     0.101522    Uiso  ? Zn
   Zn4        1.0     0.525638     0.667637     0.101522    Uiso  ? Zn
   Zn4        1.0     0.525638     0.867638     0.101522    Uiso  ? Zn
   Zn4        1.0     0.725638     0.067637     0.101522    Uiso  ? Zn
   Zn4        1.0     0.725638     0.267637     0.101522    Uiso  ? Zn
   Zn4        1.0     0.725638     0.467637     0.101522    Uiso  ? Zn
   Zn4        1.0     0.725638     0.667637     0.101522    Uiso  ? Zn
   Zn4        1.0     0.725638     0.867638     0.101522    Uiso  ? Zn
   Zn4        1.0     0.925638     0.067637     0.101522    Uiso  ? Zn
   Zn4        1.0     0.925638     0.267637     0.101522    Uiso  ? Zn
   Zn4        1.0     0.925638     0.467637     0.101522    Uiso  ? Zn
   Zn4        1.0     0.925638     0.667637     0.101522    Uiso  ? Zn
   Zn4        1.0     0.925638     0.867638     0.101522    Uiso  ? Zn
   Zn5        1.0     0.135425     0.995969     0.212274    Uiso  ? Zn
   Zn5        1.0     0.135425     0.195969     0.212274    Uiso  ? Zn
   Zn5        1.0     0.135425     0.395969     0.212274    Uiso  ? Zn
   Zn5        1.0     0.135425     0.595969     0.212274    Uiso  ? Zn
   Zn5        1.0     0.135425     0.795969     0.212274    Uiso  ? Zn
   Zn5        1.0     0.335425     0.995969     0.212274    Uiso  ? Zn
   Zn5        1.0     0.335425     0.195969     0.212274    Uiso  ? Zn
   Zn5        1.0     0.335425     0.395969     0.212274    Uiso  ? Zn
   Zn5        1.0     0.335425     0.595969     0.212274    Uiso  ? Zn
   Zn5        1.0     0.335425     0.795969     0.212274    Uiso  ? Zn
   Zn5        1.0     0.535425     0.995969     0.212274    Uiso  ? Zn
   Zn5        1.0     0.535425     0.195969     0.212274    Uiso  ? Zn
   Zn5        1.0     0.535425     0.395969     0.212274    Uiso  ? Zn
   Zn5        1.0     0.535425     0.595969     0.212274    Uiso  ? Zn
   Zn5        1.0     0.535425     0.795969     0.212274    Uiso  ? Zn
   Zn5        1.0     0.735425     0.995969     0.212274    Uiso  ? Zn
   Zn5        1.0     0.735425     0.195969     0.212274    Uiso  ? Zn
   Zn5        1.0     0.735425     0.395969     0.212274    Uiso  ? Zn
   Zn5        1.0     0.735425     0.595969     0.212274    Uiso  ? Zn
   Zn5        1.0     0.735425     0.795969     0.212274    Uiso  ? Zn
   Zn5        1.0     0.935425     0.995969     0.212274    Uiso  ? Zn
   Zn5        1.0     0.935425     0.195969     0.212274    Uiso  ? Zn
   Zn5        1.0     0.935425     0.395969     0.212274    Uiso  ? Zn
   Zn5        1.0     0.935425     0.595969     0.212274    Uiso  ? Zn
   Zn5        1.0     0.935425     0.795969     0.212274    Uiso  ? Zn
   Zn6        1.0     0.145213     0.924301     0.323025    Uiso  ? Zn
   Zn6        1.0     0.145213     0.124301     0.323025    Uiso  ? Zn
   Zn6        1.0     0.145213     0.324301     0.323025    Uiso  ? Zn
   Zn6        1.0     0.145213     0.524301     0.323025    Uiso  ? Zn
   Zn6        1.0     0.145213     0.724301     0.323025    Uiso  ? Zn
   Zn6        1.0     0.345213     0.924301     0.323025    Uiso  ? Zn
   Zn6        1.0     0.345213     0.124301     0.323025    Uiso  ? Zn
   Zn6        1.0     0.345213     0.324301     0.323025    Uiso  ? Zn
   Zn6        1.0     0.345213     0.524301     0.323025    Uiso  ? Zn
   Zn6        1.0     0.345213     0.724301     0.323025    Uiso  ? Zn
   Zn6        1.0     0.545213     0.924301     0.323025    Uiso  ? Zn
   Zn6        1.0     0.545213     0.124301     0.323025    Uiso  ? Zn
   Zn6        1.0     0.545213     0.324301     0.323025    Uiso  ? Zn
   Zn6        1.0     0.545213     0.524301     0.323025    Uiso  ? Zn
   Zn6        1.0     0.545213     0.724301     0.323025    Uiso  ? Zn
   Zn6        1.0     0.745213     0.924301     0.323025    Uiso  ? Zn
   Zn6        1.0     0.745213     0.124301     0.323025    Uiso  ? Zn
   Zn6        1.0     0.745213     0.324301     0.323025    Uiso  ? Zn
   Zn6        1.0     0.745213     0.524301     0.323025    Uiso  ? Zn
   Zn6        1.0     0.745213     0.724301     0.323025    Uiso  ? Zn
   Zn6        1.0     0.945213     0.924301     0.323025    Uiso  ? Zn
   Zn6        1.0     0.945213     0.124301     0.323025    Uiso  ? Zn
   Zn6        1.0     0.945213     0.324301     0.323025    Uiso  ? Zn
   Zn6        1.0     0.945213     0.524301     0.323025    Uiso  ? Zn
   Zn6        1.0     0.945213     0.724301     0.323025    Uiso  ? Zn
   Zn7        1.0     0.189043     0.024860     0.064605    Uiso  ? Zn
   Zn7        1.0     0.189043     0.224860     0.064605    Uiso  ? Zn
   Zn7        1.0     0.189043     0.424860     0.064605    Uiso  ? Zn
   Zn7        1.0     0.189043     0.624860     0.064605    Uiso  ? Zn
   Zn7        1.0     0.189043     0.824860     0.064605    Uiso  ? Zn
   Zn7        1.0     0.389043     0.024860     0.064605    Uiso  ? Zn
   Zn7        1.0     0.389043     0.224860     0.064605    Uiso  ? Zn
   Zn7        1.0     0.389043     0.424860     0.064605    Uiso  ? Zn
   Zn7        1.0     0.389043     0.624860     0.064605    Uiso  ? Zn
   Zn7        1.0     0.389043     0.824860     0.064605    Uiso  ? Zn
   Zn7        1.0     0.589043     0.024860     0.064605    Uiso  ? Zn
   Zn7        1.0     0.589043     0.224860     0.064605    Uiso  ? Zn
   Zn7        1.0     0.589043     0.424860     0.064605    Uiso  ? Zn
   Zn7        1.0     0.589043     0.624860     0.064605    Uiso  ? Zn
   Zn7        1.0     0.589043     0.824860     0.064605    Uiso  ? Zn
   Zn7        1.0     0.789043     0.024860     0.064605    Uiso  ? Zn
   Zn7        1.0     0.789043     0.224860     0.064605    Uiso  ? Zn
   Zn7        1.0     0.789043     0.424860     0.064605    Uiso  ? Zn
   Zn7        1.0     0.789043     0.624860     0.064605    Uiso  ? Zn
   Zn7        1.0     0.789043     0.824860     0.064605    Uiso  ? Zn
   Zn7        1.0     0.989043     0.024860     0.064605    Uiso  ? Zn
   Zn7        1.0     0.989043     0.224860     0.064605    Uiso  ? Zn
   Zn7        1.0     0.989043     0.424860     0.064605    Uiso  ? Zn
   Zn7        1.0     0.989043     0.624860     0.064605    Uiso  ? Zn
   Zn7        1.0     0.989043     0.824860     0.064605    Uiso  ? Zn
   Zn8        1.0     0.198830     0.953192     0.175357    Uiso  ? Zn
   Zn8        1.0     0.198830     0.153192     0.175357    Uiso  ? Zn
   Zn8        1.0     0.198830     0.353192     0.175357    Uiso  ? Zn
   Zn8        1.0     0.198830     0.553192     0.175357    Uiso  ? Zn
   Zn8        1.0     0.198830     0.753192     0.175357    Uiso  ? Zn
   Zn8        1.0     0.398830     0.953192     0.175357    Uiso  ? Zn
   Zn8        1.0     0.398830     0.153192     0.175357    Uiso  ? Zn
   Zn8        1.0     0.398830     0.353192     0.175357    Uiso  ? Zn
   Zn8        1.0     0.398830     0.553192     0.175357    Uiso  ? Zn
   Zn8        1.0     0.398830     0.753192     0.175357    Uiso  ? Zn
   Zn8        1.0     0.598830     0.953192     0.175357    Uiso  ? Zn
   Zn8        1.0     0.598830     0.153192     0.175357    Uiso  ? Zn
   Zn8        1.0     0.598830     0.353192     0.175357    Uiso  ? Zn
   Zn8        1.0     0.598830     0.553192     0.175357    Uiso  ? Zn
   Zn8        1.0     0.598830     0.753192     0.175357    Uiso  ? Zn
   Zn8        1.0     0.798830     0.953192     0.175357    Uiso  ? Zn
   Zn8        1.0     0.798830     0.153192     0.175357    Uiso  ? Zn
   Zn8        1.0     0.798830     0.353192     0.175357    Uiso  ? Zn
   Zn8        1.0     0.798830     0.553192     0.175357    Uiso  ? Zn
   Zn8        1.0     0.798830     0.753192     0.175357    Uiso  ? Zn
   Zn8        1.0     0.998830     0.953192     0.175357    Uiso  ? Zn
   Zn8        1.0     0.998830     0.153192     0.175357    Uiso  ? Zn
   Zn8        1.0     0.998830     0.353192     0.175357    Uiso  ? Zn
   Zn8        1.0     0.998830     0.553192     0.175357    Uiso  ? Zn
   Zn8        1.0     0.998830     0.753192     0.175357    Uiso  ? Zn
   Zn9        1.0     0.208617     0.881524     0.286108    Uiso  ? Zn
   Zn9        1.0     0.208617     0.081524     0.286108    Uiso  ? Zn
   Zn9        1.0     0.208617     0.281524     0.286108    Uiso  ? Zn
   Zn9        1.0     0.208617     0.481524     0.286108    Uiso  ? Zn
   Zn9        1.0     0.208617     0.681524     0.286108    Uiso  ? Zn
   Zn9        1.0     0.408617     0.881524     0.286108    Uiso  ? Zn
   Zn9        1.0     0.408617     0.081524     0.286108    Uiso  ? Zn
   Zn9        1.0     0.408617     0.281524     0.286108    Uiso  ? Zn
   Zn9        1.0     0.408617     0.481524     0.286108    Uiso  ? Zn
   Zn9        1.0     0.408617     0.681524     0.286108    Uiso  ? Zn
   Zn9        1.0     0.608617     0.881524     0.286108    Uiso  ? Zn
   Zn9        1.0     0.608617     0.081524     0.286108    Uiso  ? Zn
   Zn9        1.0     0.608617     0.281524     0.286108    Uiso  ? Zn
   Zn9        1.0     0.608617     0.481524     0.286108    Uiso  ? Zn
   Zn9        1.0     0.608617     0.681524     0.286108    Uiso  ? Zn
   Zn9        1.0     0.808617     0.881524     0.286108    Uiso  ? Zn
   Zn9        1.0     0.808617     0.081524     0.286108    Uiso  ? Zn
   Zn9        1.0     0.808617     0.281524     0.286108    Uiso  ? Zn
   Zn9        1.0     0.808617     0.481524     0.286108    Uiso  ? Zn
   Zn9        1.0     0.808617     0.681524     0.286108    Uiso  ? Zn
   Zn9        1.0     0.008617     0.881524     0.286108    Uiso  ? Zn
   Zn9        1.0     0.008617     0.081524     0.286108    Uiso  ? Zn
   Zn9        1.0     0.008617     0.281524     0.286108    Uiso  ? Zn
   Zn9        1.0     0.008617     0.481524     0.286108    Uiso  ? Zn
   Zn9        1.0     0.008617     0.681524     0.286108    Uiso  ? Zn
   Zn10       1.0     0.020745     0.103472     0.046146    Uiso  ? Zn
   Zn10       1.0     0.020745     0.303472     0.046146    Uiso  ? Zn
   Zn10       1.0     0.020745     0.503472     0.046146    Uiso  ? Zn
   Zn10       1.0     0.020745     0.703472     0.046146    Uiso  ? Zn
   Zn10       1.0     0.020745     0.903472     0.046146    Uiso  ? Zn
   Zn10       1.0     0.220745     0.103472     0.046146    Uiso  ? Zn
   Zn10       1.0     0.220745     0.303472     0.046146    Uiso  ? Zn
   Zn10       1.0     0.220745     0.503472     0.046146    Uiso  ? Zn
   Zn10       1.0     0.220745     0.703472     0.046146    Uiso  ? Zn
   Zn10       1.0     0.220745     0.903472     0.046146    Uiso  ? Zn
   Zn10       1.0     0.420745     0.103472     0.046146    Uiso  ? Zn
   Zn10       1.0     0.420745     0.303472     0.046146    Uiso  ? Zn
   Zn10       1.0     0.420745     0.503472     0.046146    Uiso  ? Zn
   Zn10       1.0     0.420745     0.703472     0.046146    Uiso  ? Zn
   Zn10       1.0     0.420745     0.903472     0.046146    Uiso  ? Zn
   Zn10       1.0     0.620745     0.103472     0.046146    Uiso  ? Zn
   Zn10       1.0     0.620745     0.303472     0.046146    Uiso  ? Zn
   Zn10       1.0     0.620745     0.503472     0.046146    Uiso  ? Zn
   Zn10       1.0     0.620745     0.703472     0.046146    Uiso  ? Zn
   Zn10       1.0     0.620745     0.903472     0.046146    Uiso  ? Zn
   Zn10       1.0     0.820745     0.103472     0.046146    Uiso  ? Zn
   Zn10       1.0     0.820745     0.303472     0.046146    Uiso  ? Zn
   Zn10       1.0     0.820745     0.503472     0.046146    Uiso  ? Zn
   Zn10       1.0     0.820745     0.703472     0.046146    Uiso  ? Zn
   Zn10       1.0     0.820745     0.903472     0.046146    Uiso  ? Zn
   Zn11       1.0     0.030532     0.031804     0.156898    Uiso  ? Zn
   Zn11       1.0     0.030532     0.231804     0.156898    Uiso  ? Zn
   Zn11       1.0     0.030532     0.431804     0.156898    Uiso  ? Zn
   Zn11       1.0     0.030532     0.631804     0.156898    Uiso  ? Zn
   Zn11       1.0     0.030532     0.831804     0.156898    Uiso  ? Zn
   Zn11       1.0     0.230532     0.031804     0.156898    Uiso  ? Zn
   Zn11       1.0     0.230532     0.231804     0.156898    Uiso  ? Zn
   Zn11       1.0     0.230532     0.431804     0.156898    Uiso  ? Zn
   Zn11       1.0     0.230532     0.631804     0.156898    Uiso  ? Zn
   Zn11       1.0     0.230532     0.831804     0.156898    Uiso  ? Zn
   Zn11       1.0     0.430532     0.031804     0.156898    Uiso  ? Zn
   Zn11       1.0     0.430532     0.231804     0.156898    Uiso  ? Zn
   Zn11       1.0     0.430532     0.431804     0.156898    Uiso  ? Zn
   Zn11       1.0     0.430532     0.631804     0.156898    Uiso  ? Zn
   Zn11       1.0     0.430532     0.831804     0.156898    Uiso  ? Zn
   Zn11       1.0     0.630532     0.031804     0.156898    Uiso  ? Zn
   Zn11       1.0     0.630532     0.231804     0.156898    Uiso  ? Zn
   Zn11       1.0     0.630532     0.431804     0.156898    Uiso  ? Zn
   Zn11       1.0     0.630532     0.631804     0.156898    Uiso  ? Zn
   Zn11       1.0     0.630532     0.831804     0.156898    Uiso  ? Zn
   Zn11       1.0     0.830532     0.031804     0.156898    Uiso  ? Zn
   Zn11       1.0     0.830532     0.231804     0.156898    Uiso  ? Zn
   Zn11       1.0     0.830532     0.431804     0.156898    Uiso  ? Zn
   Zn11       1.0     0.830532     0.631804     0.156898    Uiso  ? Zn
   Zn11       1.0     0.830532     0.831804     0.156898    Uiso  ? Zn
   Zn12       1.0     0.040319     0.960135     0.267650    Uiso  ? Zn
   Zn12       1.0     0.040319     0.160135     0.267650    Uiso  ? Zn
   Zn12       1.0     0.040319     0.360135     0.267650    Uiso  ? Zn
   Zn12       1.0     0.040319     0.560135     0.267650    Uiso  ? Zn
   Zn12       1.0     0.040319     0.760135     0.267650    Uiso  ? Zn
   Zn12       1.0     0.240319     0.960135     0.267650    Uiso  ? Zn
   Zn12       1.0     0.240319     0.160135     0.267650    Uiso  ? Zn
   Zn12       1.0     0.240319     0.360135     0.267650    Uiso  ? Zn
   Zn12       1.0     0.240319     0.560135     0.267650    Uiso  ? Zn
   Zn12       1.0     0.240319     0.760135     0.267650    Uiso  ? Zn
   Zn12       1.0     0.440319     0.960135     0.267650    Uiso  ? Zn
   Zn12       1.0     0.440319     0.160135     0.267650    Uiso  ? Zn
   Zn12       1.0     0.440319     0.360135     0.267650    Uiso  ? Zn
   Zn12       1.0     0.440319     0.560135     0.267650    Uiso  ? Zn
   Zn12       1.0     0.440319     0.760135     0.267650    Uiso  ? Zn
   Zn12       1.0     0.640319     0.960135     0.267650    Uiso  ? Zn
   Zn12       1.0     0.640319     0.160135     0.267650    Uiso  ? Zn
   Zn12       1.0     0.640319     0.360135     0.267650    Uiso  ? Zn
   Zn12       1.0     0.640319     0.560135     0.267650    Uiso  ? Zn
   Zn12       1.0     0.640319     0.760135     0.267650    Uiso  ? Zn
   Zn12       1.0     0.840319     0.960135     0.267650    Uiso  ? Zn
   Zn12       1.0     0.840319     0.160135     0.267650    Uiso  ? Zn
   Zn12       1.0     0.840319     0.360135     0.267650    Uiso  ? Zn
   Zn12       1.0     0.840319     0.560135     0.267650    Uiso  ? Zn
   Zn12       1.0     0.840319     0.760135     0.267650    Uiso  ? Zn
