
#======================================================================
# CRYSTAL DATA
#----------------------------------------------------------------------
data_VESTA_phase_1

_chemical_name_common                  'Zn2'
_cell_length_a                         7.843081
_cell_length_b                         7.843081
_cell_length_c                         29.746323
_cell_angle_alpha                      90.000000
_cell_angle_beta                       90.000000
_cell_angle_gamma                      120.000000
_cell_volume                           1584.664453
_space_group_name_H-M_alt              'P 1'
_space_group_IT_number                 1

loop_
_space_group_symop_operation_xyz
   'x, y, z'

loop_
   _atom_site_label
   _atom_site_occupancy
   _atom_site_fract_x
   _atom_site_fract_y
   _atom_site_fract_z
   _atom_site_adp_type
   _atom_site_U_iso_or_equiv
   _atom_site_type_symbol
   Zn1        1.0     0.111111     0.222222     0.040956    Uiso  ? Zn
   Zn1        1.0     0.111111     0.555556     0.040956    Uiso  ? Zn
   Zn1        1.0     0.111111     0.888889     0.040956    Uiso  ? Zn
   Zn1        1.0     0.444444     0.222222     0.040956    Uiso  ? Zn
   Zn1        1.0     0.444444     0.555556     0.040956    Uiso  ? Zn
   Zn1        1.0     0.444444     0.888889     0.040956    Uiso  ? Zn
   Zn1        1.0     0.777778     0.222222     0.040956    Uiso  ? Zn
   Zn1        1.0     0.777778     0.555556     0.040956    Uiso  ? Zn
   Zn1        1.0     0.777778     0.888889     0.040956    Uiso  ? Zn
   Zn2        1.0     0.111111     0.222222     0.122868    Uiso  ? Zn
   Zn2        1.0     0.111111     0.555556     0.122868    Uiso  ? Zn
   Zn2        1.0     0.111111     0.888889     0.122868    Uiso  ? Zn
   Zn2        1.0     0.444444     0.222222     0.122868    Uiso  ? Zn
   Zn2        1.0     0.444444     0.555556     0.122868    Uiso  ? Zn
   Zn2        1.0     0.444444     0.888889     0.122868    Uiso  ? Zn
   Zn2        1.0     0.777778     0.222222     0.122868    Uiso  ? Zn
   Zn2        1.0     0.777778     0.555556     0.122868    Uiso  ? Zn
   Zn2        1.0     0.777778     0.888889     0.122868    Uiso  ? Zn
   Zn3        1.0     0.111111     0.222222     0.204780    Uiso  ? Zn
   Zn3        1.0     0.111111     0.555556     0.204780    Uiso  ? Zn
   Zn3        1.0     0.111111     0.888889     0.204780    Uiso  ? Zn
   Zn3        1.0     0.444444     0.222222     0.204780    Uiso  ? Zn
   Zn3        1.0     0.444444     0.555556     0.204780    Uiso  ? Zn
   Zn3        1.0     0.444444     0.888889     0.204780    Uiso  ? Zn
   Zn3        1.0     0.777778     0.222222     0.204780    Uiso  ? Zn
   Zn3        1.0     0.777778     0.555556     0.204780    Uiso  ? Zn
   Zn3        1.0     0.777778     0.888889     0.204780    Uiso  ? Zn
   Zn4        1.0     0.111111     0.222222     0.286692    Uiso  ? Zn
   Zn4        1.0     0.111111     0.555556     0.286692    Uiso  ? Zn
   Zn4        1.0     0.111111     0.888889     0.286692    Uiso  ? Zn
   Zn4        1.0     0.444444     0.222222     0.286692    Uiso  ? Zn
   Zn4        1.0     0.444444     0.555556     0.286692    Uiso  ? Zn
   Zn4        1.0     0.444444     0.888889     0.286692    Uiso  ? Zn
   Zn4        1.0     0.777778     0.222222     0.286692    Uiso  ? Zn
   Zn4        1.0     0.777778     0.555556     0.286692    Uiso  ? Zn
   Zn4        1.0     0.777778     0.888889     0.286692    Uiso  ? Zn
   Zn5        1.0     0.222222     0.111111     0.040956    Uiso  ? Zn
   Zn5        1.0     0.222222     0.444444     0.040956    Uiso  ? Zn
   Zn5        1.0     0.222222     0.777778     0.040956    Uiso  ? Zn
   Zn5        1.0     0.555556     0.111111     0.040956    Uiso  ? Zn
   Zn5        1.0     0.555556     0.444444     0.040956    Uiso  ? Zn
   Zn5        1.0     0.555556     0.777778     0.040956    Uiso  ? Zn
   Zn5        1.0     0.888889     0.111111     0.040956    Uiso  ? Zn
   Zn5        1.0     0.888889     0.444444     0.040956    Uiso  ? Zn
   Zn5        1.0     0.888889     0.777778     0.040956    Uiso  ? Zn
   Zn6        1.0     0.222222     0.111111     0.122868    Uiso  ? Zn
   Zn6        1.0     0.222222     0.444444     0.122868    Uiso  ? Zn
   Zn6        1.0     0.222222     0.777778     0.122868    Uiso  ? Zn
   Zn6        1.0     0.555556     0.111111     0.122868    Uiso  ? Zn
   Zn6        1.0     0.555556     0.444444     0.122868    Uiso  ? Zn
   Zn6        1.0     0.555556     0.777778     0.122868    Uiso  ? Zn
   Zn6        1.0     0.888889     0.111111     0.122868    Uiso  ? Zn
   Zn6        1.0     0.888889     0.444444     0.122868    Uiso  ? Zn
   Zn6        1.0     0.888889     0.777778     0.122868    Uiso  ? Zn
   Zn7        1.0     0.222222     0.111111     0.204780    Uiso  ? Zn
   Zn7        1.0     0.222222     0.444444     0.204780    Uiso  ? Zn
   Zn7        1.0     0.222222     0.777778     0.204780    Uiso  ? Zn
   Zn7        1.0     0.555556     0.111111     0.204780    Uiso  ? Zn
   Zn7        1.0     0.555556     0.444444     0.204780    Uiso  ? Zn
   Zn7        1.0     0.555556     0.777778     0.204780    Uiso  ? Zn
   Zn7        1.0     0.888889     0.111111     0.204780    Uiso  ? Zn
   Zn7        1.0     0.888889     0.444444     0.204780    Uiso  ? Zn
   Zn7        1.0     0.888889     0.777778     0.204780    Uiso  ? Zn
   Zn8        1.0     0.222222     0.111111     0.286692    Uiso  ? Zn
   Zn8        1.0     0.222222     0.444444     0.286692    Uiso  ? Zn
   Zn8        1.0     0.222222     0.777778     0.286692    Uiso  ? Zn
   Zn8        1.0     0.555556     0.111111     0.286692    Uiso  ? Zn
   Zn8        1.0     0.555556     0.444444     0.286692    Uiso  ? Zn
   Zn8        1.0     0.555556     0.777778     0.286692    Uiso  ? Zn
   Zn8        1.0     0.888889     0.111111     0.286692    Uiso  ? Zn
   Zn8        1.0     0.888889     0.444444     0.286692    Uiso  ? Zn
   Zn8        1.0     0.888889     0.777778     0.286692    Uiso  ? Zn
