
#======================================================================
# CRYSTAL DATA
#----------------------------------------------------------------------
data_VESTA_phase_1

_chemical_name_common                  'Zn2'
_cell_length_a                         24.365805
_cell_length_b                         13.071799
_cell_length_c                         33.551449
_cell_angle_alpha                      120.000000
_cell_angle_beta                       90.000000
_cell_angle_gamma                      90.000000
_cell_volume                           9254.608241
_space_group_name_H-M_alt              'P 1'
_space_group_IT_number                 1

loop_
_space_group_symop_operation_xyz
   'x, y, z'

loop_
   _atom_site_label
   _atom_site_occupancy
   _atom_site_fract_x
   _atom_site_fract_y
   _atom_site_fract_z
   _atom_site_adp_type
   _atom_site_U_iso_or_equiv
   _atom_site_type_symbol
   Zn1        1.0     0.050000     0.133333     0.025974    Uiso  ? Zn
   Zn2        1.0     0.050000     0.333333     0.025974    Uiso  ? Zn
   Zn3        1.0     0.050000     0.533333     0.025974    Uiso  ? Zn
   Zn4        1.0     0.050000     0.733333     0.025974    Uiso  ? Zn
   Zn5        1.0     0.050000     0.933333     0.025974    Uiso  ? Zn
   Zn6        1.0     0.250000     0.133333     0.025974    Uiso  ? Zn
   Zn7        1.0     0.250000     0.333333     0.025974    Uiso  ? Zn
   Zn8        1.0     0.250000     0.533333     0.025974    Uiso  ? Zn
   Zn9        1.0     0.250000     0.733333     0.025974    Uiso  ? Zn
   Zn10       1.0     0.250000     0.933333     0.025974    Uiso  ? Zn
   Zn11       1.0     0.450000     0.133333     0.025974    Uiso  ? Zn
   Zn12       1.0     0.450000     0.333333     0.025974    Uiso  ? Zn
   Zn13       1.0     0.450000     0.533333     0.025974    Uiso  ? Zn
   Zn14       1.0     0.450000     0.733333     0.025974    Uiso  ? Zn
   Zn15       1.0     0.450000     0.933333     0.025974    Uiso  ? Zn
   Zn16       1.0     0.650000     0.133333     0.025974    Uiso  ? Zn
   Zn17       1.0     0.650000     0.333333     0.025974    Uiso  ? Zn
   Zn18       1.0     0.650000     0.533333     0.025974    Uiso  ? Zn
   Zn19       1.0     0.650000     0.733333     0.025974    Uiso  ? Zn
   Zn20       1.0     0.650000     0.933333     0.025974    Uiso  ? Zn
   Zn21       1.0     0.850000     0.133333     0.025974    Uiso  ? Zn
   Zn22       1.0     0.850000     0.333333     0.025974    Uiso  ? Zn
   Zn23       1.0     0.850000     0.533333     0.025974    Uiso  ? Zn
   Zn24       1.0     0.850000     0.733333     0.025974    Uiso  ? Zn
   Zn25       1.0     0.850000     0.933333     0.025974    Uiso  ? Zn
   Zn26       1.0     0.050000     0.133333     0.103895    Uiso  ? Zn
   Zn27       1.0     0.050000     0.333333     0.103895    Uiso  ? Zn
   Zn28       1.0     0.050000     0.533333     0.103895    Uiso  ? Zn
   Zn29       1.0     0.050000     0.733333     0.103895    Uiso  ? Zn
   Zn30       1.0     0.050000     0.933333     0.103895    Uiso  ? Zn
   Zn31       1.0     0.250000     0.133333     0.103895    Uiso  ? Zn
   Zn32       1.0     0.250000     0.333333     0.103895    Uiso  ? Zn
   Zn33       1.0     0.250000     0.533333     0.103895    Uiso  ? Zn
   Zn34       1.0     0.250000     0.733333     0.103895    Uiso  ? Zn
   Zn35       1.0     0.250000     0.933333     0.103895    Uiso  ? Zn
   Zn36       1.0     0.450000     0.133333     0.103895    Uiso  ? Zn
   Zn37       1.0     0.450000     0.333333     0.103895    Uiso  ? Zn
   Zn38       1.0     0.450000     0.533333     0.103895    Uiso  ? Zn
   Zn39       1.0     0.450000     0.733333     0.103895    Uiso  ? Zn
   Zn40       1.0     0.450000     0.933333     0.103895    Uiso  ? Zn
   Zn41       1.0     0.650000     0.133333     0.103895    Uiso  ? Zn
   Zn42       1.0     0.650000     0.333333     0.103895    Uiso  ? Zn
   Zn43       1.0     0.650000     0.533333     0.103895    Uiso  ? Zn
   Zn44       1.0     0.650000     0.733333     0.103895    Uiso  ? Zn
   Zn45       1.0     0.650000     0.933333     0.103895    Uiso  ? Zn
   Zn46       1.0     0.850000     0.133333     0.103895    Uiso  ? Zn
   Zn47       1.0     0.850000     0.333333     0.103895    Uiso  ? Zn
   Zn48       1.0     0.850000     0.533333     0.103895    Uiso  ? Zn
   Zn49       1.0     0.850000     0.733333     0.103895    Uiso  ? Zn
   Zn50       1.0     0.850000     0.933333     0.103895    Uiso  ? Zn
   Zn51       1.0     0.050000     0.133333     0.181815    Uiso  ? Zn
   Zn52       1.0     0.050000     0.333333     0.181815    Uiso  ? Zn
   Zn53       1.0     0.050000     0.533333     0.181815    Uiso  ? Zn
   Zn54       1.0     0.050000     0.733333     0.181815    Uiso  ? Zn
   Zn55       1.0     0.050000     0.933333     0.181815    Uiso  ? Zn
   Zn56       1.0     0.250000     0.133333     0.181815    Uiso  ? Zn
   Zn57       1.0     0.250000     0.333333     0.181815    Uiso  ? Zn
   Zn58       1.0     0.250000     0.533333     0.181815    Uiso  ? Zn
   Zn59       1.0     0.250000     0.733333     0.181815    Uiso  ? Zn
   Zn60       1.0     0.250000     0.933333     0.181815    Uiso  ? Zn
   Zn61       1.0     0.450000     0.133333     0.181815    Uiso  ? Zn
   Zn62       1.0     0.450000     0.333333     0.181815    Uiso  ? Zn
   Zn63       1.0     0.450000     0.533333     0.181815    Uiso  ? Zn
   Zn64       1.0     0.450000     0.733333     0.181815    Uiso  ? Zn
   Zn65       1.0     0.450000     0.933333     0.181815    Uiso  ? Zn
   Zn66       1.0     0.650000     0.133333     0.181815    Uiso  ? Zn
   Zn67       1.0     0.650000     0.333333     0.181815    Uiso  ? Zn
   Zn68       1.0     0.650000     0.533333     0.181815    Uiso  ? Zn
   Zn69       1.0     0.650000     0.733333     0.181815    Uiso  ? Zn
   Zn70       1.0     0.650000     0.933333     0.181815    Uiso  ? Zn
   Zn71       1.0     0.850000     0.133333     0.181815    Uiso  ? Zn
   Zn72       1.0     0.850000     0.333333     0.181815    Uiso  ? Zn
   Zn73       1.0     0.850000     0.533333     0.181815    Uiso  ? Zn
   Zn74       1.0     0.850000     0.733333     0.181815    Uiso  ? Zn
   Zn75       1.0     0.850000     0.933333     0.181815    Uiso  ? Zn
   Zn76       1.0     0.050000     0.133333     0.259736    Uiso  ? Zn
   Zn77       1.0     0.050000     0.333333     0.259736    Uiso  ? Zn
   Zn78       1.0     0.050000     0.533333     0.259736    Uiso  ? Zn
   Zn79       1.0     0.050000     0.733333     0.259736    Uiso  ? Zn
   Zn80       1.0     0.050000     0.933333     0.259736    Uiso  ? Zn
   Zn81       1.0     0.250000     0.133333     0.259736    Uiso  ? Zn
   Zn82       1.0     0.250000     0.333333     0.259736    Uiso  ? Zn
   Zn83       1.0     0.250000     0.533333     0.259736    Uiso  ? Zn
   Zn84       1.0     0.250000     0.733333     0.259736    Uiso  ? Zn
   Zn85       1.0     0.250000     0.933333     0.259736    Uiso  ? Zn
   Zn86       1.0     0.450000     0.133333     0.259736    Uiso  ? Zn
   Zn87       1.0     0.450000     0.333333     0.259736    Uiso  ? Zn
   Zn88       1.0     0.450000     0.533333     0.259736    Uiso  ? Zn
   Zn89       1.0     0.450000     0.733333     0.259736    Uiso  ? Zn
   Zn90       1.0     0.450000     0.933333     0.259736    Uiso  ? Zn
   Zn91       1.0     0.650000     0.133333     0.259736    Uiso  ? Zn
   Zn92       1.0     0.650000     0.333333     0.259736    Uiso  ? Zn
   Zn93       1.0     0.650000     0.533333     0.259736    Uiso  ? Zn
   Zn94       1.0     0.650000     0.733333     0.259736    Uiso  ? Zn
   Zn95       1.0     0.650000     0.933333     0.259736    Uiso  ? Zn
   Zn96       1.0     0.850000     0.133333     0.259736    Uiso  ? Zn
   Zn97       1.0     0.850000     0.333333     0.259736    Uiso  ? Zn
   Zn98       1.0     0.850000     0.533333     0.259736    Uiso  ? Zn
   Zn99       1.0     0.850000     0.733333     0.259736    Uiso  ? Zn
   Zn100      1.0     0.850000     0.933333     0.259736    Uiso  ? Zn
   Zn101      1.0     0.150000     0.066667     0.051947    Uiso  ? Zn
   Zn102      1.0     0.150000     0.266667     0.051947    Uiso  ? Zn
   Zn103      1.0     0.150000     0.466667     0.051947    Uiso  ? Zn
   Zn104      1.0     0.150000     0.666667     0.051947    Uiso  ? Zn
   Zn105      1.0     0.150000     0.866667     0.051947    Uiso  ? Zn
   Zn106      1.0     0.350000     0.066667     0.051947    Uiso  ? Zn
   Zn107      1.0     0.350000     0.266667     0.051947    Uiso  ? Zn
   Zn108      1.0     0.350000     0.466667     0.051947    Uiso  ? Zn
   Zn109      1.0     0.350000     0.666667     0.051947    Uiso  ? Zn
   Zn110      1.0     0.350000     0.866667     0.051947    Uiso  ? Zn
   Zn111      1.0     0.550000     0.066667     0.051947    Uiso  ? Zn
   Zn112      1.0     0.550000     0.266667     0.051947    Uiso  ? Zn
   Zn113      1.0     0.550000     0.466667     0.051947    Uiso  ? Zn
   Zn114      1.0     0.550000     0.666667     0.051947    Uiso  ? Zn
   Zn115      1.0     0.550000     0.866667     0.051947    Uiso  ? Zn
   Zn116      1.0     0.750000     0.066667     0.051947    Uiso  ? Zn
   Zn117      1.0     0.750000     0.266667     0.051947    Uiso  ? Zn
   Zn118      1.0     0.750000     0.466667     0.051947    Uiso  ? Zn
   Zn119      1.0     0.750000     0.666667     0.051947    Uiso  ? Zn
   Zn120      1.0     0.750000     0.866667     0.051947    Uiso  ? Zn
   Zn121      1.0     0.950000     0.066667     0.051947    Uiso  ? Zn
   Zn122      1.0     0.950000     0.266667     0.051947    Uiso  ? Zn
   Zn123      1.0     0.950000     0.466667     0.051947    Uiso  ? Zn
   Zn124      1.0     0.950000     0.666667     0.051947    Uiso  ? Zn
   Zn125      1.0     0.950000     0.866667     0.051947    Uiso  ? Zn
   Zn126      1.0     0.150000     0.066667     0.129868    Uiso  ? Zn
   Zn127      1.0     0.150000     0.266667     0.129868    Uiso  ? Zn
   Zn128      1.0     0.150000     0.466667     0.129868    Uiso  ? Zn
   Zn129      1.0     0.150000     0.666667     0.129868    Uiso  ? Zn
   Zn130      1.0     0.150000     0.866667     0.129868    Uiso  ? Zn
   Zn131      1.0     0.350000     0.066667     0.129868    Uiso  ? Zn
   Zn132      1.0     0.350000     0.266667     0.129868    Uiso  ? Zn
   Zn133      1.0     0.350000     0.466667     0.129868    Uiso  ? Zn
   Zn134      1.0     0.350000     0.666667     0.129868    Uiso  ? Zn
   Zn135      1.0     0.350000     0.866667     0.129868    Uiso  ? Zn
   Zn136      1.0     0.550000     0.066667     0.129868    Uiso  ? Zn
   Zn137      1.0     0.550000     0.266667     0.129868    Uiso  ? Zn
   Zn138      1.0     0.550000     0.466667     0.129868    Uiso  ? Zn
   Zn139      1.0     0.550000     0.666667     0.129868    Uiso  ? Zn
   Zn140      1.0     0.550000     0.866667     0.129868    Uiso  ? Zn
   Zn141      1.0     0.750000     0.066667     0.129868    Uiso  ? Zn
   Zn142      1.0     0.750000     0.266667     0.129868    Uiso  ? Zn
   Zn143      1.0     0.750000     0.466667     0.129868    Uiso  ? Zn
   Zn144      1.0     0.750000     0.666667     0.129868    Uiso  ? Zn
   Zn145      1.0     0.750000     0.866667     0.129868    Uiso  ? Zn
   Zn146      1.0     0.950000     0.066667     0.129868    Uiso  ? Zn
   Zn147      1.0     0.950000     0.266667     0.129868    Uiso  ? Zn
   Zn148      1.0     0.950000     0.466667     0.129868    Uiso  ? Zn
   Zn149      1.0     0.950000     0.666667     0.129868    Uiso  ? Zn
   Zn150      1.0     0.950000     0.866667     0.129868    Uiso  ? Zn
   Zn151      1.0     0.150000     0.066667     0.207789    Uiso  ? Zn
   Zn152      1.0     0.150000     0.266667     0.207789    Uiso  ? Zn
   Zn153      1.0     0.150000     0.466667     0.207789    Uiso  ? Zn
   Zn154      1.0     0.150000     0.666667     0.207789    Uiso  ? Zn
   Zn155      1.0     0.150000     0.866667     0.207789    Uiso  ? Zn
   Zn156      1.0     0.350000     0.066667     0.207789    Uiso  ? Zn
   Zn157      1.0     0.350000     0.266667     0.207789    Uiso  ? Zn
   Zn158      1.0     0.350000     0.466667     0.207789    Uiso  ? Zn
   Zn159      1.0     0.350000     0.666667     0.207789    Uiso  ? Zn
   Zn160      1.0     0.350000     0.866667     0.207789    Uiso  ? Zn
   Zn161      1.0     0.550000     0.066667     0.207789    Uiso  ? Zn
   Zn162      1.0     0.550000     0.266667     0.207789    Uiso  ? Zn
   Zn163      1.0     0.550000     0.466667     0.207789    Uiso  ? Zn
   Zn164      1.0     0.550000     0.666667     0.207789    Uiso  ? Zn
   Zn165      1.0     0.550000     0.866667     0.207789    Uiso  ? Zn
   Zn166      1.0     0.750000     0.066667     0.207789    Uiso  ? Zn
   Zn167      1.0     0.750000     0.266667     0.207789    Uiso  ? Zn
   Zn168      1.0     0.750000     0.466667     0.207789    Uiso  ? Zn
   Zn169      1.0     0.750000     0.666667     0.207789    Uiso  ? Zn
   Zn170      1.0     0.750000     0.866667     0.207789    Uiso  ? Zn
   Zn171      1.0     0.950000     0.066667     0.207789    Uiso  ? Zn
   Zn172      1.0     0.950000     0.266667     0.207789    Uiso  ? Zn
   Zn173      1.0     0.950000     0.466667     0.207789    Uiso  ? Zn
   Zn174      1.0     0.950000     0.666667     0.207789    Uiso  ? Zn
   Zn175      1.0     0.950000     0.866667     0.207789    Uiso  ? Zn
   Zn176      1.0     0.150000     0.066667     0.285710    Uiso  ? Zn
   Zn177      1.0     0.150000     0.266667     0.285710    Uiso  ? Zn
   Zn178      1.0     0.150000     0.466667     0.285710    Uiso  ? Zn
   Zn179      1.0     0.150000     0.666667     0.285710    Uiso  ? Zn
   Zn180      1.0     0.150000     0.866667     0.285710    Uiso  ? Zn
   Zn181      1.0     0.350000     0.066667     0.285710    Uiso  ? Zn
   Zn182      1.0     0.350000     0.266667     0.285710    Uiso  ? Zn
   Zn183      1.0     0.350000     0.466667     0.285710    Uiso  ? Zn
   Zn184      1.0     0.350000     0.666667     0.285710    Uiso  ? Zn
   Zn185      1.0     0.350000     0.866667     0.285710    Uiso  ? Zn
   Zn186      1.0     0.550000     0.066667     0.285710    Uiso  ? Zn
   Zn187      1.0     0.550000     0.266667     0.285710    Uiso  ? Zn
   Zn188      1.0     0.550000     0.466667     0.285710    Uiso  ? Zn
   Zn189      1.0     0.550000     0.666667     0.285710    Uiso  ? Zn
   Zn190      1.0     0.550000     0.866667     0.285710    Uiso  ? Zn
   Zn191      1.0     0.750000     0.066667     0.285710    Uiso  ? Zn
   Zn192      1.0     0.750000     0.266667     0.285710    Uiso  ? Zn
   Zn193      1.0     0.750000     0.466667     0.285710    Uiso  ? Zn
   Zn194      1.0     0.750000     0.666667     0.285710    Uiso  ? Zn
   Zn195      1.0     0.750000     0.866667     0.285710    Uiso  ? Zn
   Zn196      1.0     0.950000     0.066667     0.285710    Uiso  ? Zn
   Zn197      1.0     0.950000     0.266667     0.285710    Uiso  ? Zn
   Zn198      1.0     0.950000     0.466667     0.285710    Uiso  ? Zn
   Zn199      1.0     0.950000     0.666667     0.285710    Uiso  ? Zn
   Zn200      1.0     0.950000     0.866667     0.285710    Uiso  ? Zn
