LAMMPS (2 Aug 2023 - Update 4)
variable i loop 20
label loop_start
clear  # 초기화

# Create and move to a new directory for this run
shell mkdir run_1
shell cd run_1

# LAMMPS Input Script for Finding O2- Adsorption Site for DFT
units real
atom_style charge  # ReaxFF requires charge
boundary p p p  # Periodic boundary conditions

# Copy input files to the new directory
shell cp ../chelpg_updated_honokiol_2_remove_bond.data .
shell cp ../chelpg_updated_O2_remove_bond.data .
shell cp ../ffield.reax.rdx .

# Read input data files
read_data chelpg_updated_honokiol_2_remove_bond.data
Reading data file ...
  orthogonal box = (-15 -15 -15) to (15 15 15)
  reading atoms ...
  38 atoms
read_data chelpg_updated_O2_remove_bond.data add append
Reading data file ...
  orthogonal box = (-15 -15 -15) to (15 15 15)
  reading atoms ...
  2 atoms

# Define groups
group honokiol type 1 2 3  # Honokiol (C, H, O)
38 atoms in group honokiol
group O2molecule type 4  # O2- (assumed type 4)
2 atoms in group O2molecule

# Fix Honokiol to prevent unwanted movement
fix freeze honokiol setforce 0.0 0.0 0.0

# Define ReaxFF pair style and parameters
pair_style reax/c NULL
pair_coeff * * ffield.reax.rdx C H O O  # O2- included
Reading potential file ffield.reax.rdx with DATE: 2010-02-19

# Charge equilibration (QEq) required for ReaxFF
fix 1 all qeq/reaxff 1 0.0 10.0 1.0e-6 reaxff

# Define MSD computation
compute msdO O2molecule msd

# Generate different random positions for O2-
variable seed1 equal 12345+v_i*1000
variable seed2 equal 67890+v_i*1000
variable seed3 equal 54321+v_i*1000
variable dx equal random(-5,5,v_seed1)
variable dy equal random(-5,5,v_seed2)
variable dz equal random(-5,5,v_seed3)
displace_atoms O2molecule move 0.929287075996399 -4.22945976257324 1.85842573642731 units box
Displacing atoms ...

# Initial energy minimization to relax high-force configurations
minimize 1.0e-6 1.0e-8 5000 10000

CITE-CITE-CITE-CITE-CITE-CITE-CITE-CITE-CITE-CITE-CITE-CITE-CITE

Your simulation uses code contributions which should be cited:

- pair reaxff command: doi:10.1016/j.parco.2011.08.005

@Article{Aktulga12,
 author = {H. M. Aktulga and J. C. Fogarty and S. A. Pandit and A. Y. Grama},
 title = {Parallel Reactive Molecular Dynamics: {N}umerical Methods and Algorithmic Techniques},
 journal = {Parallel Computing},
 year =    2012,
 volume =  38,
 number =  {4--5},
 pages =   {245--259}
}

- fix qeq/reaxff command: doi:10.1016/j.parco.2011.08.005

@Article{Aktulga12,
 author = {H. M. Aktulga and J. C. Fogarty and S. A. Pandit and A. Y. Grama},
 title = {Parallel Reactive Molecular Dynamics: {N}umerical Methods and Algorithmic Techniques},
 journal = {Parallel Computing},
 year =    2012,
 volume =  38,
 pages =   {245--259}
}

CITE-CITE-CITE-CITE-CITE-CITE-CITE-CITE-CITE-CITE-CITE-CITE-CITE

Step          Temp          E_pair         E_mol          TotEng         Press
0   0             -4831.1618      0             -4831.1618      1574.7715
Loop time of 0.006617 on 1 procs for 11 steps with 40 atoms

Minimization stats:
  Stopping criterion = energy tolerance
  Energy initial, next-to-last, final =
  Force two-norm initial, final = 430.10059 2.4145436
  Force max component initial, final = 310.066 1.9750408
  Final line search alpha, max atom move = 0.030393573 0.060028547
  Iterations, force evaluations = 11 19

write_data minimized_structure_1.data
System init for write_data ...

# Run NVT MD simulation for O2- to find adsorption site
fix nvt O2molecule nvt temp 300.0 300.0 100.0

fix msdout O2molecule ave/time 100 1 100 c_msdO[1] file msd_O2_1.dat
fix msdoutX O2molecule ave/time 100 1 100 c_msdO[2] file msd_O2_X_1.dat
fix msdoutY O2molecule ave/time 100 1 100 c_msdO[3] file msd_O2_Y_1.dat
fix msdoutZ O2molecule ave/time 100 1 100 c_msdO[4] file msd_O2_Z_1.dat

# Save total energy to a file
variable etotal equal pe+ke

# Bond Order Analysis (Check if O2- is binding)
fix bonds all reax/c/bonds 1000 bonds_1.reax

# Output settings: Save trajectory and bond information
thermo 100
thermo_style custom step temp pe ke etotal press
dump 1 all atom 100 dump_1.lammpstrj

timestep 0.25
run 200000  # 1000 ps
Step          Temp          PotEng         KinEng         TotEng         Press
11   0             -4854.5266      0             -4854.5266      1886.2153
Averages over the last 1001 of 2002 rows, steps 100100 to 200011:
Temp PotEng KinEng TotEng Press
7.69727 -4857.72 0.89482 -4856.82 1889.43
Loop time of 63.3865 on 1 procs for 200000 steps with 40 atoms

# Final energy minimization for most stable adsorption structure
unfix nvt
minimize 1.0e-6 1.0e-8 5000 10000
Step          Temp          PotEng         KinEng         TotEng         Press
200011   5.870413      -4857.2563      0.68244486    -4856.5739      1893.8779
Loop time of 0.00454959 on 1 procs for 6 steps with 40 atoms

Minimization stats:
  Stopping criterion = energy tolerance
  Energy initial, next-to-last, final =
  Force two-norm initial, final = 2.6538729 3.5999524
  Force max component initial, final = 1.6054107 2.2334421
  Final line search alpha, max atom move = 0.17854986 0.39878078
  Iterations, force evaluations = 6 11

write_data final_structure_1.data
System init for write_data ...

# Dump final structure in XYZ format for DFT input
write_dump all xyz final_structure_1.xyz

# Move back to parent directory
shell cd ..

# Increment loop
next i
jump SELF loop_start
clear  # 초기화

# Create and move to a new directory for this run
shell mkdir run_2
shell cd run_2

# LAMMPS Input Script for Finding O2- Adsorption Site for DFT
units real
atom_style charge  # ReaxFF requires charge
boundary p p p  # Periodic boundary conditions

# Copy input files to the new directory
shell cp ../chelpg_updated_honokiol_2_remove_bond.data .
shell cp ../chelpg_updated_O2_remove_bond.data .
shell cp ../ffield.reax.rdx .

# Read input data files
read_data chelpg_updated_honokiol_2_remove_bond.data
Reading data file ...
  orthogonal box = (-15 -15 -15) to (15 15 15)
  reading atoms ...
  38 atoms
read_data chelpg_updated_O2_remove_bond.data add append
Reading data file ...
  orthogonal box = (-15 -15 -15) to (15 15 15)
  reading atoms ...
  2 atoms

# Define groups
group honokiol type 1 2 3  # Honokiol (C, H, O)
38 atoms in group honokiol
group O2molecule type 4  # O2- (assumed type 4)
2 atoms in group O2molecule

# Fix Honokiol to prevent unwanted movement
fix freeze honokiol setforce 0.0 0.0 0.0

# Define ReaxFF pair style and parameters
pair_style reax/c NULL
pair_coeff * * ffield.reax.rdx C H O O  # O2- included
Reading potential file ffield.reax.rdx with DATE: 2010-02-19

# Charge equilibration (QEq) required for ReaxFF
fix 1 all qeq/reaxff 1 0.0 10.0 1.0e-6 reaxff

# Define MSD computation
compute msdO O2molecule msd

# Generate different random positions for O2-
variable seed1 equal 12345+v_i*1000
variable seed2 equal 67890+v_i*1000
variable seed3 equal 54321+v_i*1000
variable dx equal random(-5,5,v_seed1)
variable dy equal random(-5,5,v_seed2)
variable dz equal random(-5,5,v_seed3)
displace_atoms O2molecule move -1.73665642738342 -4.31104421615601 -2.75501608848572 units box
Displacing atoms ...

# Initial energy minimization to relax high-force configurations
minimize 1.0e-6 1.0e-8 5000 10000
Step          Temp          E_pair         E_mol          TotEng         Press
0   0             -4830.5575      0             -4830.5575      1544.773
Loop time of 0.00333069 on 1 procs for 5 steps with 40 atoms

Minimization stats:
  Stopping criterion = energy tolerance
  Energy initial, next-to-last, final =
  Force two-norm initial, final = 423.64165 9.4824674
  Force max component initial, final = 299.79573 6.9138233
  Final line search alpha, max atom move = 0.0028564689 0.019749121
  Iterations, force evaluations = 5 9

write_data minimized_structure_2.data
System init for write_data ...

# Run NVT MD simulation for O2- to find adsorption site
fix nvt O2molecule nvt temp 300.0 300.0 100.0

fix msdout O2molecule ave/time 100 1 100 c_msdO[1] file msd_O2_2.dat
fix msdoutX O2molecule ave/time 100 1 100 c_msdO[2] file msd_O2_X_2.dat
fix msdoutY O2molecule ave/time 100 1 100 c_msdO[3] file msd_O2_Y_2.dat
fix msdoutZ O2molecule ave/time 100 1 100 c_msdO[4] file msd_O2_Z_2.dat

# Save total energy to a file
variable etotal equal pe+ke

# Bond Order Analysis (Check if O2- is binding)
fix bonds all reax/c/bonds 1000 bonds_2.reax

# Output settings: Save trajectory and bond information
thermo 100
thermo_style custom step temp pe ke etotal press
dump 2 all atom 100 dump_2.lammpstrj

timestep 0.25
run 200000  # 1000 ps
Step          Temp          PotEng         KinEng         TotEng         Press
5   0             -4851.8958      0             -4851.8958      1890.9844
Averages over the last 1001 of 2002 rows, steps 100100 to 200005:
Temp PotEng KinEng TotEng Press
7.67242 -4854.2 0.891931 -4853.31 1889.56
Loop time of 63.4987 on 1 procs for 200000 steps with 40 atoms

# Final energy minimization for most stable adsorption structure
unfix nvt
minimize 1.0e-6 1.0e-8 5000 10000
Step          Temp          PotEng         KinEng         TotEng         Press
200005   17.761592     -4854.8172      2.0648134     -4852.7524      1894.7676
Loop time of 0.0013875 on 1 procs for 1 steps with 40 atoms

Minimization stats:
  Stopping criterion = energy tolerance
  Energy initial, next-to-last, final =
  Force two-norm initial, final = 4.5330384 2.0719325
  Force max component initial, final = 3.2731355 1.4571219
  Final line search alpha, max atom move = 0.030551745 0.044517616
  Iterations, force evaluations = 1 2

write_data final_structure_2.data
System init for write_data ...

# Dump final structure in XYZ format for DFT input
write_dump all xyz final_structure_2.xyz

# Move back to parent directory
shell cd ..

# Increment loop
next i
jump SELF loop_start
clear  # 초기화

# Create and move to a new directory for this run
shell mkdir run_3
shell cd run_3

# LAMMPS Input Script for Finding O2- Adsorption Site for DFT
units real
atom_style charge  # ReaxFF requires charge
boundary p p p  # Periodic boundary conditions

# Copy input files to the new directory
shell cp ../chelpg_updated_honokiol_2_remove_bond.data .
shell cp ../chelpg_updated_O2_remove_bond.data .
shell cp ../ffield.reax.rdx .

# Read input data files
read_data chelpg_updated_honokiol_2_remove_bond.data
Reading data file ...
  orthogonal box = (-15 -15 -15) to (15 15 15)
  reading atoms ...
  38 atoms
read_data chelpg_updated_O2_remove_bond.data add append
Reading data file ...
  orthogonal box = (-15 -15 -15) to (15 15 15)
  reading atoms ...
  2 atoms

# Define groups
group honokiol type 1 2 3  # Honokiol (C, H, O)
38 atoms in group honokiol
group O2molecule type 4  # O2- (assumed type 4)
2 atoms in group O2molecule

# Fix Honokiol to prevent unwanted movement
fix freeze honokiol setforce 0.0 0.0 0.0

# Define ReaxFF pair style and parameters
pair_style reax/c NULL
pair_coeff * * ffield.reax.rdx C H O O  # O2- included
Reading potential file ffield.reax.rdx with DATE: 2010-02-19

# Charge equilibration (QEq) required for ReaxFF
fix 1 all qeq/reaxff 1 0.0 10.0 1.0e-6 reaxff

# Define MSD computation
compute msdO O2molecule msd

# Generate different random positions for O2-
variable seed1 equal 12345+v_i*1000
variable seed2 equal 67890+v_i*1000
variable seed3 equal 54321+v_i*1000
variable dx equal random(-5,5,v_seed1)
variable dy equal random(-5,5,v_seed2)
variable dz equal random(-5,5,v_seed3)
displace_atoms O2molecule move 0.729482769966125 0.136806964874268 -3.86757493019104 units box
Displacing atoms ...

# Initial energy minimization to relax high-force configurations
minimize 1.0e-6 1.0e-8 5000 10000
Step          Temp          E_pair         E_mol          TotEng         Press
0   0             -4830.4817      0             -4830.4817      1558.6018
Loop time of 0.002907 on 1 procs for 4 steps with 40 atoms

Minimization stats:
  Stopping criterion = energy tolerance
  Energy initial, next-to-last, final =
  Force two-norm initial, final = 423.02118 4.0531209
  Force max component initial, final = 299.56427 2.4573025
  Final line search alpha, max atom move = 0.043679607 0.10733401
  Iterations, force evaluations = 4 8

write_data minimized_structure_3.data
System init for write_data ...

# Run NVT MD simulation for O2- to find adsorption site
fix nvt O2molecule nvt temp 300.0 300.0 100.0

fix msdout O2molecule ave/time 100 1 100 c_msdO[1] file msd_O2_3.dat
fix msdoutX O2molecule ave/time 100 1 100 c_msdO[2] file msd_O2_X_3.dat
fix msdoutY O2molecule ave/time 100 1 100 c_msdO[3] file msd_O2_Y_3.dat
fix msdoutZ O2molecule ave/time 100 1 100 c_msdO[4] file msd_O2_Z_3.dat

# Save total energy to a file
variable etotal equal pe+ke

# Bond Order Analysis (Check if O2- is binding)
fix bonds all reax/c/bonds 1000 bonds_3.reax

# Output settings: Save trajectory and bond information
thermo 100
thermo_style custom step temp pe ke etotal press
dump 3 all atom 100 dump_3.lammpstrj

timestep 0.25
run 200000  # 1000 ps
Step          Temp          PotEng         KinEng         TotEng         Press
4   0             -4851.9696      0             -4851.9696      1891.5907
Averages over the last 1001 of 2002 rows, steps 100100 to 200004:
Temp PotEng KinEng TotEng Press
7.75246 -4860.55 0.901236 -4859.65 1893.2
Loop time of 62.6389 on 1 procs for 200000 steps with 40 atoms

# Final energy minimization for most stable adsorption structure
unfix nvt
minimize 1.0e-6 1.0e-8 5000 10000
Step          Temp          PotEng         KinEng         TotEng         Press
200004   5.4479351     -4861.1082      0.63333112    -4860.4749      1890.7729
Loop time of 0.0017802 on 1 procs for 2 steps with 40 atoms

Minimization stats:
  Stopping criterion = energy tolerance
  Energy initial, next-to-last, final =
  Force two-norm initial, final = 1.2079152 0.62802674
  Force max component initial, final = 0.72496382 0.39012956
  Final line search alpha, max atom move = 0.09098281 0.035495083
  Iterations, force evaluations = 2 3

write_data final_structure_3.data
System init for write_data ...

# Dump final structure in XYZ format for DFT input
write_dump all xyz final_structure_3.xyz

# Move back to parent directory
shell cd ..

# Increment loop
next i
jump SELF loop_start
clear  # 초기화

# Create and move to a new directory for this run
shell mkdir run_4
shell cd run_4

# LAMMPS Input Script for Finding O2- Adsorption Site for DFT
units real
atom_style charge  # ReaxFF requires charge
boundary p p p  # Periodic boundary conditions

# Copy input files to the new directory
shell cp ../chelpg_updated_honokiol_2_remove_bond.data .
shell cp ../chelpg_updated_O2_remove_bond.data .
shell cp ../ffield.reax.rdx .

# Read input data files
read_data chelpg_updated_honokiol_2_remove_bond.data
Reading data file ...
  orthogonal box = (-15 -15 -15) to (15 15 15)
  reading atoms ...
  38 atoms
read_data chelpg_updated_O2_remove_bond.data add append
Reading data file ...
  orthogonal box = (-15 -15 -15) to (15 15 15)
  reading atoms ...
  2 atoms

# Define groups
group honokiol type 1 2 3  # Honokiol (C, H, O)
38 atoms in group honokiol
group O2molecule type 4  # O2- (assumed type 4)
2 atoms in group O2molecule

# Fix Honokiol to prevent unwanted movement
fix freeze honokiol setforce 0.0 0.0 0.0

# Define ReaxFF pair style and parameters
pair_style reax/c NULL
pair_coeff * * ffield.reax.rdx C H O O  # O2- included
Reading potential file ffield.reax.rdx with DATE: 2010-02-19

# Charge equilibration (QEq) required for ReaxFF
fix 1 all qeq/reaxff 1 0.0 10.0 1.0e-6 reaxff

# Define MSD computation
compute msdO O2molecule msd

# Generate different random positions for O2-
variable seed1 equal 12345+v_i*1000
variable seed2 equal 67890+v_i*1000
variable seed3 equal 54321+v_i*1000
variable dx equal random(-5,5,v_seed1)
variable dy equal random(-5,5,v_seed2)
variable dz equal random(-5,5,v_seed3)
displace_atoms O2molecule move 1.51512205600739 -2.33151197433472 0.99793016910553 units box
Displacing atoms ...

# Initial energy minimization to relax high-force configurations
minimize 1.0e-6 1.0e-8 5000 10000
Step          Temp          E_pair         E_mol          TotEng         Press
0   0             -4679.0682      0             -4679.0682      3013.0017
Loop time of 0.0185331 on 1 procs for 29 steps with 40 atoms

Minimization stats:
  Stopping criterion = energy tolerance
  Energy initial, next-to-last, final =
  Force two-norm initial, final = 212.19807 10.636694
  Force max component initial, final = 176.55124 6.8873924
  Final line search alpha, max atom move = 0.00072684162 0.0050060434
  Iterations, force evaluations = 29 54

write_data minimized_structure_4.data
System init for write_data ...

# Run NVT MD simulation for O2- to find adsorption site
fix nvt O2molecule nvt temp 300.0 300.0 100.0

fix msdout O2molecule ave/time 100 1 100 c_msdO[1] file msd_O2_4.dat
fix msdoutX O2molecule ave/time 100 1 100 c_msdO[2] file msd_O2_X_4.dat
fix msdoutY O2molecule ave/time 100 1 100 c_msdO[3] file msd_O2_Y_4.dat
fix msdoutZ O2molecule ave/time 100 1 100 c_msdO[4] file msd_O2_Z_4.dat

# Save total energy to a file
variable etotal equal pe+ke

# Bond Order Analysis (Check if O2- is binding)
fix bonds all reax/c/bonds 1000 bonds_4.reax

# Output settings: Save trajectory and bond information
thermo 100
thermo_style custom step temp pe ke etotal press
dump 4 all atom 100 dump_4.lammpstrj

timestep 0.25
run 200000  # 1000 ps
Step          Temp          PotEng         KinEng         TotEng         Press
29   0             -4855.0387      0             -4855.0387      1896.1474
Averages over the last 1001 of 2002 rows, steps 100100 to 200029:
Temp PotEng KinEng TotEng Press
7.69108 -4857.77 0.8941 -4856.88 1889.83
Loop time of 62.9847 on 1 procs for 200000 steps with 40 atoms

# Final energy minimization for most stable adsorption structure
unfix nvt
minimize 1.0e-6 1.0e-8 5000 10000
Step          Temp          PotEng         KinEng         TotEng         Press
200029   2.9552784     -4858.092       0.34355582    -4857.7485      1881.548
Loop time of 0.0015769 on 1 procs for 1 steps with 40 atoms

Minimization stats:
  Stopping criterion = energy tolerance
  Energy initial, next-to-last, final =
  Force two-norm initial, final = 2.2569863 1.506556
  Force max component initial, final = 1.7819433 1.3023683
  Final line search alpha, max atom move = 0.05611851 0.07308697
  Iterations, force evaluations = 1 2

write_data final_structure_4.data
System init for write_data ...

# Dump final structure in XYZ format for DFT input
write_dump all xyz final_structure_4.xyz

# Move back to parent directory
shell cd ..

# Increment loop
next i
jump SELF loop_start
clear  # 초기화

# Create and move to a new directory for this run
shell mkdir run_5
shell cd run_5

# LAMMPS Input Script for Finding O2- Adsorption Site for DFT
units real
atom_style charge  # ReaxFF requires charge
boundary p p p  # Periodic boundary conditions

# Copy input files to the new directory
shell cp ../chelpg_updated_honokiol_2_remove_bond.data .
shell cp ../chelpg_updated_O2_remove_bond.data .
shell cp ../ffield.reax.rdx .

# Read input data files
read_data chelpg_updated_honokiol_2_remove_bond.data
Reading data file ...
  orthogonal box = (-15 -15 -15) to (15 15 15)
  reading atoms ...
  38 atoms
read_data chelpg_updated_O2_remove_bond.data add append
Reading data file ...
  orthogonal box = (-15 -15 -15) to (15 15 15)
  reading atoms ...
  2 atoms

# Define groups
group honokiol type 1 2 3  # Honokiol (C, H, O)
38 atoms in group honokiol
group O2molecule type 4  # O2- (assumed type 4)
2 atoms in group O2molecule

# Fix Honokiol to prevent unwanted movement
fix freeze honokiol setforce 0.0 0.0 0.0

# Define ReaxFF pair style and parameters
pair_style reax/c NULL
pair_coeff * * ffield.reax.rdx C H O O  # O2- included
Reading potential file ffield.reax.rdx with DATE: 2010-02-19

# Charge equilibration (QEq) required for ReaxFF
fix 1 all qeq/reaxff 1 0.0 10.0 1.0e-6 reaxff

# Define MSD computation
compute msdO O2molecule msd

# Generate different random positions for O2-
variable seed1 equal 12345+v_i*1000
variable seed2 equal 67890+v_i*1000
variable seed3 equal 54321+v_i*1000
variable dx equal random(-5,5,v_seed1)
variable dy equal random(-5,5,v_seed2)
variable dz equal random(-5,5,v_seed3)
displace_atoms O2molecule move 3.00446808338165 0.30275285243988 -3.87763142585754 units box
Displacing atoms ...

# Initial energy minimization to relax high-force configurations
minimize 1.0e-6 1.0e-8 5000 10000
Step          Temp          E_pair         E_mol          TotEng         Press
0   0             -4832.0391      0             -4832.0391      1546.8844
Loop time of 0.0029464 on 1 procs for 4 steps with 40 atoms

Minimization stats:
  Stopping criterion = energy tolerance
  Energy initial, next-to-last, final =
  Force two-norm initial, final = 422.82791 7.0194032
  Force max component initial, final = 299.20659 5.1148226
  Final line search alpha, max atom move = 0.015894657 0.081298348
  Iterations, force evaluations = 4 8

write_data minimized_structure_5.data
System init for write_data ...

# Run NVT MD simulation for O2- to find adsorption site
fix nvt O2molecule nvt temp 300.0 300.0 100.0

fix msdout O2molecule ave/time 100 1 100 c_msdO[1] file msd_O2_5.dat
fix msdoutX O2molecule ave/time 100 1 100 c_msdO[2] file msd_O2_X_5.dat
fix msdoutY O2molecule ave/time 100 1 100 c_msdO[3] file msd_O2_Y_5.dat
fix msdoutZ O2molecule ave/time 100 1 100 c_msdO[4] file msd_O2_Z_5.dat

# Save total energy to a file
variable etotal equal pe+ke

# Bond Order Analysis (Check if O2- is binding)
fix bonds all reax/c/bonds 1000 bonds_5.reax

# Output settings: Save trajectory and bond information
thermo 100
thermo_style custom step temp pe ke etotal press
dump 5 all atom 100 dump_5.lammpstrj

timestep 0.25
run 200000  # 1000 ps
Step          Temp          PotEng         KinEng         TotEng         Press
4   0             -4853.2016      0             -4853.2016      1890.8
Averages over the last 1001 of 2002 rows, steps 100100 to 200004:
Temp PotEng KinEng TotEng Press
7.533 -4860.59 0.875723 -4859.72 1892.13
Loop time of 62.3814 on 1 procs for 200000 steps with 40 atoms

# Final energy minimization for most stable adsorption structure
unfix nvt
minimize 1.0e-6 1.0e-8 5000 10000
Step          Temp          PotEng         KinEng         TotEng         Press
200004   2.0574407     -4859.7019      0.23918075    -4859.4627      1885.4607
Loop time of 0.0031177 on 1 procs for 4 steps with 40 atoms

Minimization stats:
  Stopping criterion = energy tolerance
  Energy initial, next-to-last, final =
  Force two-norm initial, final = 2.4348749 5.1905625
  Force max component initial, final = 1.7200782 3.7146237
  Final line search alpha, max atom move = 0.070227231 0.26086774
  Iterations, force evaluations = 4 7

write_data final_structure_5.data
System init for write_data ...

# Dump final structure in XYZ format for DFT input
write_dump all xyz final_structure_5.xyz

# Move back to parent directory
shell cd ..

# Increment loop
next i
jump SELF loop_start
clear  # 초기화

# Create and move to a new directory for this run
shell mkdir run_6
shell cd run_6

# LAMMPS Input Script for Finding O2- Adsorption Site for DFT
units real
atom_style charge  # ReaxFF requires charge
boundary p p p  # Periodic boundary conditions

# Copy input files to the new directory
shell cp ../chelpg_updated_honokiol_2_remove_bond.data .
shell cp ../chelpg_updated_O2_remove_bond.data .
shell cp ../ffield.reax.rdx .

# Read input data files
read_data chelpg_updated_honokiol_2_remove_bond.data
Reading data file ...
  orthogonal box = (-15 -15 -15) to (15 15 15)
  reading atoms ...
  38 atoms
read_data chelpg_updated_O2_remove_bond.data add append
Reading data file ...
  orthogonal box = (-15 -15 -15) to (15 15 15)
  reading atoms ...
  2 atoms

# Define groups
group honokiol type 1 2 3  # Honokiol (C, H, O)
38 atoms in group honokiol
group O2molecule type 4  # O2- (assumed type 4)
2 atoms in group O2molecule

# Fix Honokiol to prevent unwanted movement
fix freeze honokiol setforce 0.0 0.0 0.0

# Define ReaxFF pair style and parameters
pair_style reax/c NULL
pair_coeff * * ffield.reax.rdx C H O O  # O2- included
Reading potential file ffield.reax.rdx with DATE: 2010-02-19

# Charge equilibration (QEq) required for ReaxFF
fix 1 all qeq/reaxff 1 0.0 10.0 1.0e-6 reaxff

# Define MSD computation
compute msdO O2molecule msd

# Generate different random positions for O2-
variable seed1 equal 12345+v_i*1000
variable seed2 equal 67890+v_i*1000
variable seed3 equal 54321+v_i*1000
variable dx equal random(-5,5,v_seed1)
variable dy equal random(-5,5,v_seed2)
variable dz equal random(-5,5,v_seed3)
displace_atoms O2molecule move -3.36472272872925 3.99589776992798 -0.239214897155762 units box
Displacing atoms ...

# Initial energy minimization to relax high-force configurations
minimize 1.0e-6 1.0e-8 5000 10000
Step          Temp          E_pair         E_mol          TotEng         Press
0   0             -4827.6692      0             -4827.6692      1546.402
Loop time of 0.0064987 on 1 procs for 11 steps with 40 atoms

Minimization stats:
  Stopping criterion = energy tolerance
  Energy initial, next-to-last, final =
  Force two-norm initial, final = 424.37878 1.0518997
  Force max component initial, final = 300.68599 0.79778321
  Final line search alpha, max atom move = 0.069470447 0.055422356
  Iterations, force evaluations = 11 19

write_data minimized_structure_6.data
System init for write_data ...

# Run NVT MD simulation for O2- to find adsorption site
fix nvt O2molecule nvt temp 300.0 300.0 100.0

fix msdout O2molecule ave/time 100 1 100 c_msdO[1] file msd_O2_6.dat
fix msdoutX O2molecule ave/time 100 1 100 c_msdO[2] file msd_O2_X_6.dat
fix msdoutY O2molecule ave/time 100 1 100 c_msdO[3] file msd_O2_Y_6.dat
fix msdoutZ O2molecule ave/time 100 1 100 c_msdO[4] file msd_O2_Z_6.dat

# Save total energy to a file
variable etotal equal pe+ke

# Bond Order Analysis (Check if O2- is binding)
fix bonds all reax/c/bonds 1000 bonds_6.reax

# Output settings: Save trajectory and bond information
thermo 100
thermo_style custom step temp pe ke etotal press
dump 6 all atom 100 dump_6.lammpstrj

timestep 0.25
run 200000  # 1000 ps
Step          Temp          PotEng         KinEng         TotEng         Press
11   0             -4849.6682      0             -4849.6682      1885.9019
Averages over the last 1001 of 2002 rows, steps 100100 to 200011:
Temp PotEng KinEng TotEng Press
7.88153 -4854.11 0.916241 -4853.2 1889.35
Loop time of 62.6082 on 1 procs for 200000 steps with 40 atoms

# Final energy minimization for most stable adsorption structure
unfix nvt
minimize 1.0e-6 1.0e-8 5000 10000
Step          Temp          PotEng         KinEng         TotEng         Press
200011   25.836373     -4853.6785      3.0035195     -4850.6749      1908.0309
Loop time of 0.0015408 on 1 procs for 1 steps with 40 atoms

Minimization stats:
  Stopping criterion = energy tolerance
  Energy initial, next-to-last, final =
  Force two-norm initial, final = 3.1914405 17.015321
  Force max component initial, final = 2.3540047 11.682101
  Final line search alpha, max atom move = 0.0424808 0.496265
  Iterations, force evaluations = 1 2

write_data final_structure_6.data
System init for write_data ...

# Dump final structure in XYZ format for DFT input
write_dump all xyz final_structure_6.xyz

# Move back to parent directory
shell cd ..

# Increment loop
next i
jump SELF loop_start
clear  # 초기화

# Create and move to a new directory for this run
shell mkdir run_7
shell cd run_7

# LAMMPS Input Script for Finding O2- Adsorption Site for DFT
units real
atom_style charge  # ReaxFF requires charge
boundary p p p  # Periodic boundary conditions

# Copy input files to the new directory
shell cp ../chelpg_updated_honokiol_2_remove_bond.data .
shell cp ../chelpg_updated_O2_remove_bond.data .
shell cp ../ffield.reax.rdx .

# Read input data files
read_data chelpg_updated_honokiol_2_remove_bond.data
Reading data file ...
  orthogonal box = (-15 -15 -15) to (15 15 15)
  reading atoms ...
  38 atoms
read_data chelpg_updated_O2_remove_bond.data add append
Reading data file ...
  orthogonal box = (-15 -15 -15) to (15 15 15)
  reading atoms ...
  2 atoms

# Define groups
group honokiol type 1 2 3  # Honokiol (C, H, O)
38 atoms in group honokiol
group O2molecule type 4  # O2- (assumed type 4)
2 atoms in group O2molecule

# Fix Honokiol to prevent unwanted movement
fix freeze honokiol setforce 0.0 0.0 0.0

# Define ReaxFF pair style and parameters
pair_style reax/c NULL
pair_coeff * * ffield.reax.rdx C H O O  # O2- included
Reading potential file ffield.reax.rdx with DATE: 2010-02-19

# Charge equilibration (QEq) required for ReaxFF
fix 1 all qeq/reaxff 1 0.0 10.0 1.0e-6 reaxff

# Define MSD computation
compute msdO O2molecule msd

# Generate different random positions for O2-
variable seed1 equal 12345+v_i*1000
variable seed2 equal 67890+v_i*1000
variable seed3 equal 54321+v_i*1000
variable dx equal random(-5,5,v_seed1)
variable dy equal random(-5,5,v_seed2)
variable dz equal random(-5,5,v_seed3)
displace_atoms O2molecule move 3.01383554935455 1.32339179515839 -4.21611547470093 units box
Displacing atoms ...

# Initial energy minimization to relax high-force configurations
minimize 1.0e-6 1.0e-8 5000 10000
Step          Temp          E_pair         E_mol          TotEng         Press
0   0             -4832.8336      0             -4832.8336      1549.7269
Loop time of 0.0043804 on 1 procs for 6 steps with 40 atoms

Minimization stats:
  Stopping criterion = energy tolerance
  Energy initial, next-to-last, final =
  Force two-norm initial, final = 422.50305 1.0114054
  Force max component initial, final = 298.77098 0.6055975
  Final line search alpha, max atom move = 0.036269343 0.021964624
  Iterations, force evaluations = 6 11

write_data minimized_structure_7.data
System init for write_data ...

# Run NVT MD simulation for O2- to find adsorption site
fix nvt O2molecule nvt temp 300.0 300.0 100.0

fix msdout O2molecule ave/time 100 1 100 c_msdO[1] file msd_O2_7.dat
fix msdoutX O2molecule ave/time 100 1 100 c_msdO[2] file msd_O2_X_7.dat
fix msdoutY O2molecule ave/time 100 1 100 c_msdO[3] file msd_O2_Y_7.dat
fix msdoutZ O2molecule ave/time 100 1 100 c_msdO[4] file msd_O2_Z_7.dat

# Save total energy to a file
variable etotal equal pe+ke

# Bond Order Analysis (Check if O2- is binding)
fix bonds all reax/c/bonds 1000 bonds_7.reax

# Output settings: Save trajectory and bond information
thermo 100
thermo_style custom step temp pe ke etotal press
dump 7 all atom 100 dump_7.lammpstrj

timestep 0.25
run 200000  # 1000 ps
Step          Temp          PotEng         KinEng         TotEng         Press
6   0             -4854.1535      0             -4854.1535      1886.2167
Averages over the last 1001 of 2002 rows, steps 100100 to 200006:
Temp PotEng KinEng TotEng Press
7.71463 -4860.52 0.896838 -4859.62 1891.7
Loop time of 62.5213 on 1 procs for 200000 steps with 40 atoms

# Final energy minimization for most stable adsorption structure
unfix nvt
minimize 1.0e-6 1.0e-8 5000 10000
Step          Temp          PotEng         KinEng         TotEng         Press
200006   1.390835      -4860.8388      0.16168678    -4860.6771      1891.7885
Loop time of 0.005649 on 1 procs for 9 steps with 40 atoms

Minimization stats:
  Stopping criterion = energy tolerance
  Energy initial, next-to-last, final =
  Force two-norm initial, final = 1.7734159 1.8046848
  Force max component initial, final = 1.5124702 1.374476
  Final line search alpha, max atom move = 0.0022979185 0.0031584337
  Iterations, force evaluations = 9 15

write_data final_structure_7.data
System init for write_data ...

# Dump final structure in XYZ format for DFT input
write_dump all xyz final_structure_7.xyz

# Move back to parent directory
shell cd ..

# Increment loop
next i
jump SELF loop_start
clear  # 초기화

# Create and move to a new directory for this run
shell mkdir run_8
shell cd run_8

# LAMMPS Input Script for Finding O2- Adsorption Site for DFT
units real
atom_style charge  # ReaxFF requires charge
boundary p p p  # Periodic boundary conditions

# Copy input files to the new directory
shell cp ../chelpg_updated_honokiol_2_remove_bond.data .
shell cp ../chelpg_updated_O2_remove_bond.data .
shell cp ../ffield.reax.rdx .

# Read input data files
read_data chelpg_updated_honokiol_2_remove_bond.data
Reading data file ...
  orthogonal box = (-15 -15 -15) to (15 15 15)
  reading atoms ...
  38 atoms
read_data chelpg_updated_O2_remove_bond.data add append
Reading data file ...
  orthogonal box = (-15 -15 -15) to (15 15 15)
  reading atoms ...
  2 atoms

# Define groups
group honokiol type 1 2 3  # Honokiol (C, H, O)
38 atoms in group honokiol
group O2molecule type 4  # O2- (assumed type 4)
2 atoms in group O2molecule

# Fix Honokiol to prevent unwanted movement
fix freeze honokiol setforce 0.0 0.0 0.0

# Define ReaxFF pair style and parameters
pair_style reax/c NULL
pair_coeff * * ffield.reax.rdx C H O O  # O2- included
Reading potential file ffield.reax.rdx with DATE: 2010-02-19

# Charge equilibration (QEq) required for ReaxFF
fix 1 all qeq/reaxff 1 0.0 10.0 1.0e-6 reaxff

# Define MSD computation
compute msdO O2molecule msd

# Generate different random positions for O2-
variable seed1 equal 12345+v_i*1000
variable seed2 equal 67890+v_i*1000
variable seed3 equal 54321+v_i*1000
variable dx equal random(-5,5,v_seed1)
variable dy equal random(-5,5,v_seed2)
variable dz equal random(-5,5,v_seed3)
displace_atoms O2molecule move 3.37444007396698 -4.57936704158783 4.67478215694427 units box
Displacing atoms ...

# Initial energy minimization to relax high-force configurations
minimize 1.0e-6 1.0e-8 5000 10000
Step          Temp          E_pair         E_mol          TotEng         Press
0   0             -4831.8925      0             -4831.8925      1543.1194
Loop time of 0.0092899 on 1 procs for 15 steps with 40 atoms

Minimization stats:
  Stopping criterion = energy tolerance
  Energy initial, next-to-last, final =
  Force two-norm initial, final = 423.35165 1.4939231
  Force max component initial, final = 299.36761 0.83927465
  Final line search alpha, max atom move = 0.033800833 0.028368183
  Iterations, force evaluations = 15 27

write_data minimized_structure_8.data
System init for write_data ...

# Run NVT MD simulation for O2- to find adsorption site
fix nvt O2molecule nvt temp 300.0 300.0 100.0

fix msdout O2molecule ave/time 100 1 100 c_msdO[1] file msd_O2_8.dat
fix msdoutX O2molecule ave/time 100 1 100 c_msdO[2] file msd_O2_X_8.dat
fix msdoutY O2molecule ave/time 100 1 100 c_msdO[3] file msd_O2_Y_8.dat
fix msdoutZ O2molecule ave/time 100 1 100 c_msdO[4] file msd_O2_Z_8.dat

# Save total energy to a file
variable etotal equal pe+ke

# Bond Order Analysis (Check if O2- is binding)
fix bonds all reax/c/bonds 1000 bonds_8.reax

# Output settings: Save trajectory and bond information
thermo 100
thermo_style custom step temp pe ke etotal press
dump 8 all atom 100 dump_8.lammpstrj

timestep 0.25
run 200000  # 1000 ps
Step          Temp          PotEng         KinEng         TotEng         Press
15   0             -4854.03        0             -4854.03        1891.6403
Averages over the last 1001 of 2002 rows, steps 100100 to 200015:
Temp PotEng KinEng TotEng Press
8.051 -4857.62 0.935942 -4856.68 1889.64
Loop time of 64.7201 on 1 procs for 200000 steps with 40 atoms

# Final energy minimization for most stable adsorption structure
unfix nvt
minimize 1.0e-6 1.0e-8 5000 10000
Step          Temp          PotEng         KinEng         TotEng         Press
200015   11.086675     -4857.2261      1.2888436     -4855.9373      1898.7878
Loop time of 0.001609 on 1 procs for 1 steps with 40 atoms

Minimization stats:
  Stopping criterion = energy tolerance
  Energy initial, next-to-last, final =
  Force two-norm initial, final = 4.910624 3.077196
  Force max component initial, final = 4.2668154 2.8791371
  Final line search alpha, max atom move = 0.023436683 0.067477424
  Iterations, force evaluations = 1 2

write_data final_structure_8.data
System init for write_data ...

# Dump final structure in XYZ format for DFT input
write_dump all xyz final_structure_8.xyz

# Move back to parent directory
shell cd ..

# Increment loop
next i
jump SELF loop_start
clear  # 초기화

# Create and move to a new directory for this run
shell mkdir run_9
shell cd run_9

# LAMMPS Input Script for Finding O2- Adsorption Site for DFT
units real
atom_style charge  # ReaxFF requires charge
boundary p p p  # Periodic boundary conditions

# Copy input files to the new directory
shell cp ../chelpg_updated_honokiol_2_remove_bond.data .
shell cp ../chelpg_updated_O2_remove_bond.data .
shell cp ../ffield.reax.rdx .

# Read input data files
read_data chelpg_updated_honokiol_2_remove_bond.data
Reading data file ...
  orthogonal box = (-15 -15 -15) to (15 15 15)
  reading atoms ...
  38 atoms
read_data chelpg_updated_O2_remove_bond.data add append
Reading data file ...
  orthogonal box = (-15 -15 -15) to (15 15 15)
  reading atoms ...
  2 atoms

# Define groups
group honokiol type 1 2 3  # Honokiol (C, H, O)
38 atoms in group honokiol
group O2molecule type 4  # O2- (assumed type 4)
2 atoms in group O2molecule

# Fix Honokiol to prevent unwanted movement
fix freeze honokiol setforce 0.0 0.0 0.0

# Define ReaxFF pair style and parameters
pair_style reax/c NULL
pair_coeff * * ffield.reax.rdx C H O O  # O2- included
Reading potential file ffield.reax.rdx with DATE: 2010-02-19

# Charge equilibration (QEq) required for ReaxFF
fix 1 all qeq/reaxff 1 0.0 10.0 1.0e-6 reaxff

# Define MSD computation
compute msdO O2molecule msd

# Generate different random positions for O2-
variable seed1 equal 12345+v_i*1000
variable seed2 equal 67890+v_i*1000
variable seed3 equal 54321+v_i*1000
variable dx equal random(-5,5,v_seed1)
variable dy equal random(-5,5,v_seed2)
variable dz equal random(-5,5,v_seed3)
displace_atoms O2molecule move 1.22810244560242 1.09202802181244 -2.94076681137085 units box
Displacing atoms ...

# Initial energy minimization to relax high-force configurations
minimize 1.0e-6 1.0e-8 5000 10000
Step          Temp          E_pair         E_mol          TotEng         Press
0   0             -4728.7388      0             -4728.7388      3158.9593
Loop time of 0.0192541 on 1 procs for 30 steps with 40 atoms

Minimization stats:
  Stopping criterion = energy tolerance
  Energy initial, next-to-last, final =
  Force two-norm initial, final = 238.37329 3.907187
  Force max component initial, final = 163.17332 2.6727934
  Final line search alpha, max atom move = 0.12912667 0.34512891
  Iterations, force evaluations = 30 56

write_data minimized_structure_9.data
System init for write_data ...

# Run NVT MD simulation for O2- to find adsorption site
fix nvt O2molecule nvt temp 300.0 300.0 100.0

fix msdout O2molecule ave/time 100 1 100 c_msdO[1] file msd_O2_9.dat
fix msdoutX O2molecule ave/time 100 1 100 c_msdO[2] file msd_O2_X_9.dat
fix msdoutY O2molecule ave/time 100 1 100 c_msdO[3] file msd_O2_Y_9.dat
fix msdoutZ O2molecule ave/time 100 1 100 c_msdO[4] file msd_O2_Z_9.dat

# Save total energy to a file
variable etotal equal pe+ke

# Bond Order Analysis (Check if O2- is binding)
fix bonds all reax/c/bonds 1000 bonds_9.reax

# Output settings: Save trajectory and bond information
thermo 100
thermo_style custom step temp pe ke etotal press
dump 9 all atom 100 dump_9.lammpstrj

timestep 0.25
run 200000  # 1000 ps
Step          Temp          PotEng         KinEng         TotEng         Press
30   0             -4853.0866      0             -4853.0866      1881.8198
Averages over the last 1001 of 2002 rows, steps 100100 to 200030:
Temp PotEng KinEng TotEng Press
7.92478 -4860.54 0.921268 -4859.62 1893.42
Loop time of 63.7013 on 1 procs for 200000 steps with 40 atoms

# Final energy minimization for most stable adsorption structure
unfix nvt
minimize 1.0e-6 1.0e-8 5000 10000
Step          Temp          PotEng         KinEng         TotEng         Press
200030   0.42326856    -4861.4642      0.049205643   -4861.415       1893.387
Loop time of 0.0015447 on 1 procs for 1 steps with 40 atoms

Minimization stats:
  Stopping criterion = energy tolerance
  Energy initial, next-to-last, final =
  Force two-norm initial, final = 0.78421024 3.3675607
  Force max component initial, final = 0.55604518 2.0377729
  Final line search alpha, max atom move = 0.1798415 0.36647613
  Iterations, force evaluations = 1 2

write_data final_structure_9.data
System init for write_data ...

# Dump final structure in XYZ format for DFT input
write_dump all xyz final_structure_9.xyz

# Move back to parent directory
shell cd ..

# Increment loop
next i
jump SELF loop_start
clear  # 초기화

# Create and move to a new directory for this run
shell mkdir run_10
shell cd run_10

# LAMMPS Input Script for Finding O2- Adsorption Site for DFT
units real
atom_style charge  # ReaxFF requires charge
boundary p p p  # Periodic boundary conditions

# Copy input files to the new directory
shell cp ../chelpg_updated_honokiol_2_remove_bond.data .
shell cp ../chelpg_updated_O2_remove_bond.data .
shell cp ../ffield.reax.rdx .

# Read input data files
read_data chelpg_updated_honokiol_2_remove_bond.data
Reading data file ...
  orthogonal box = (-15 -15 -15) to (15 15 15)
  reading atoms ...
  38 atoms
read_data chelpg_updated_O2_remove_bond.data add append
Reading data file ...
  orthogonal box = (-15 -15 -15) to (15 15 15)
  reading atoms ...
  2 atoms

# Define groups
group honokiol type 1 2 3  # Honokiol (C, H, O)
38 atoms in group honokiol
group O2molecule type 4  # O2- (assumed type 4)
2 atoms in group O2molecule

# Fix Honokiol to prevent unwanted movement
fix freeze honokiol setforce 0.0 0.0 0.0

# Define ReaxFF pair style and parameters
pair_style reax/c NULL
pair_coeff * * ffield.reax.rdx C H O O  # O2- included
Reading potential file ffield.reax.rdx with DATE: 2010-02-19

# Charge equilibration (QEq) required for ReaxFF
fix 1 all qeq/reaxff 1 0.0 10.0 1.0e-6 reaxff

# Define MSD computation
compute msdO O2molecule msd

# Generate different random positions for O2-
variable seed1 equal 12345+v_i*1000
variable seed2 equal 67890+v_i*1000
variable seed3 equal 54321+v_i*1000
variable dx equal random(-5,5,v_seed1)
variable dy equal random(-5,5,v_seed2)
variable dz equal random(-5,5,v_seed3)
displace_atoms O2molecule move -1.73257946968079 -4.44453239440918 -0.743336081504822 units box
Displacing atoms ...

# Initial energy minimization to relax high-force configurations
minimize 1.0e-6 1.0e-8 5000 10000
Step          Temp          E_pair         E_mol          TotEng         Press
0   0             -4830.2764      0             -4830.2764      1542.4193
Loop time of 0.0044344 on 1 procs for 9 steps with 40 atoms

Minimization stats:
  Stopping criterion = energy tolerance
  Energy initial, next-to-last, final =
  Force two-norm initial, final = 423.69233 0.95529361
  Force max component initial, final = 299.63491 0.75839282
  Final line search alpha, max atom move = 0.072939062 0.055316461
  Iterations, force evaluations = 9 13

write_data minimized_structure_10.data
System init for write_data ...

# Run NVT MD simulation for O2- to find adsorption site
fix nvt O2molecule nvt temp 300.0 300.0 100.0

fix msdout O2molecule ave/time 100 1 100 c_msdO[1] file msd_O2_10.dat
fix msdoutX O2molecule ave/time 100 1 100 c_msdO[2] file msd_O2_X_10.dat
fix msdoutY O2molecule ave/time 100 1 100 c_msdO[3] file msd_O2_Y_10.dat
fix msdoutZ O2molecule ave/time 100 1 100 c_msdO[4] file msd_O2_Z_10.dat

# Save total energy to a file
variable etotal equal pe+ke

# Bond Order Analysis (Check if O2- is binding)
fix bonds all reax/c/bonds 1000 bonds_10.reax

# Output settings: Save trajectory and bond information
thermo 100
thermo_style custom step temp pe ke etotal press
dump 10 all atom 100 dump_10.lammpstrj

timestep 0.25
run 200000  # 1000 ps
Step          Temp          PotEng         KinEng         TotEng         Press
9   0             -4852.2507      0             -4852.2507      1882.1023
Averages over the last 1001 of 2002 rows, steps 100100 to 200009:
Temp PotEng KinEng TotEng Press
7.93792 -4856.03 0.922796 -4855.11 1890.6
Loop time of 62.1322 on 1 procs for 200000 steps with 40 atoms

# Final energy minimization for most stable adsorption structure
unfix nvt
minimize 1.0e-6 1.0e-8 5000 10000
Step          Temp          PotEng         KinEng         TotEng         Press
200009   12.858404     -4858.4668      1.4948099     -4856.972       1884.2926
Loop time of 0.0014271 on 1 procs for 1 steps with 40 atoms

Minimization stats:
  Stopping criterion = energy tolerance
  Energy initial, next-to-last, final =
  Force two-norm initial, final = 1.5764047 1.027131
  Force max component initial, final = 1.0618992 0.75152871
  Final line search alpha, max atom move = 0.094170899 0.070772134
  Iterations, force evaluations = 1 2

write_data final_structure_10.data
System init for write_data ...

# Dump final structure in XYZ format for DFT input
write_dump all xyz final_structure_10.xyz

# Move back to parent directory
shell cd ..

# Increment loop
next i
jump SELF loop_start
clear  # 초기화

# Create and move to a new directory for this run
shell mkdir run_11
shell cd run_11

# LAMMPS Input Script for Finding O2- Adsorption Site for DFT
units real
atom_style charge  # ReaxFF requires charge
boundary p p p  # Periodic boundary conditions

# Copy input files to the new directory
shell cp ../chelpg_updated_honokiol_2_remove_bond.data .
shell cp ../chelpg_updated_O2_remove_bond.data .
shell cp ../ffield.reax.rdx .

# Read input data files
read_data chelpg_updated_honokiol_2_remove_bond.data
Reading data file ...
  orthogonal box = (-15 -15 -15) to (15 15 15)
  reading atoms ...
  38 atoms
read_data chelpg_updated_O2_remove_bond.data add append
Reading data file ...
  orthogonal box = (-15 -15 -15) to (15 15 15)
  reading atoms ...
  2 atoms

# Define groups
group honokiol type 1 2 3  # Honokiol (C, H, O)
38 atoms in group honokiol
group O2molecule type 4  # O2- (assumed type 4)
2 atoms in group O2molecule

# Fix Honokiol to prevent unwanted movement
fix freeze honokiol setforce 0.0 0.0 0.0

# Define ReaxFF pair style and parameters
pair_style reax/c NULL
pair_coeff * * ffield.reax.rdx C H O O  # O2- included
Reading potential file ffield.reax.rdx with DATE: 2010-02-19

# Charge equilibration (QEq) required for ReaxFF
fix 1 all qeq/reaxff 1 0.0 10.0 1.0e-6 reaxff

# Define MSD computation
compute msdO O2molecule msd

# Generate different random positions for O2-
variable seed1 equal 12345+v_i*1000
variable seed2 equal 67890+v_i*1000
variable seed3 equal 54321+v_i*1000
variable dx equal random(-5,5,v_seed1)
variable dy equal random(-5,5,v_seed2)
variable dz equal random(-5,5,v_seed3)
displace_atoms O2molecule move -2.74960517883301 -4.10558044910431 4.7088885307312 units box
Displacing atoms ...

# Initial energy minimization to relax high-force configurations
minimize 1.0e-6 1.0e-8 5000 10000
Step          Temp          E_pair         E_mol          TotEng         Press
0   0             -4832.0489      0             -4832.0489      1538.9487
Loop time of 0.0097228 on 1 procs for 17 steps with 40 atoms

Minimization stats:
  Stopping criterion = energy tolerance
  Energy initial, next-to-last, final =
  Force two-norm initial, final = 423.59562 3.0921661
  Force max component initial, final = 299.73569 1.9231872
  Final line search alpha, max atom move = 0.031693811 0.060953131
  Iterations, force evaluations = 17 30

write_data minimized_structure_11.data
System init for write_data ...

# Run NVT MD simulation for O2- to find adsorption site
fix nvt O2molecule nvt temp 300.0 300.0 100.0

fix msdout O2molecule ave/time 100 1 100 c_msdO[1] file msd_O2_11.dat
fix msdoutX O2molecule ave/time 100 1 100 c_msdO[2] file msd_O2_X_11.dat
fix msdoutY O2molecule ave/time 100 1 100 c_msdO[3] file msd_O2_Y_11.dat
fix msdoutZ O2molecule ave/time 100 1 100 c_msdO[4] file msd_O2_Z_11.dat

# Save total energy to a file
variable etotal equal pe+ke

# Bond Order Analysis (Check if O2- is binding)
fix bonds all reax/c/bonds 1000 bonds_11.reax

# Output settings: Save trajectory and bond information
thermo 100
thermo_style custom step temp pe ke etotal press
dump 11 all atom 100 dump_11.lammpstrj

timestep 0.25
run 200000  # 1000 ps
Step          Temp          PotEng         KinEng         TotEng         Press
17   0             -4856.3293      0             -4856.3293      1875.9132
Averages over the last 1001 of 2002 rows, steps 100100 to 200017:
Temp PotEng KinEng TotEng Press
7.85466 -4860.47 0.913116 -4859.56 1891.4
Loop time of 63.0298 on 1 procs for 200000 steps with 40 atoms

# Final energy minimization for most stable adsorption structure
unfix nvt
minimize 1.0e-6 1.0e-8 5000 10000
Step          Temp          PotEng         KinEng         TotEng         Press
200017   1.8303229     -4860.7739      0.21277795    -4860.5611      1885.6191
Loop time of 0.0023748 on 1 procs for 3 steps with 40 atoms

Minimization stats:
  Stopping criterion = energy tolerance
  Energy initial, next-to-last, final =
  Force two-norm initial, final = 1.660453 1.1996645
  Force max component initial, final = 1.3264018 0.90242905
  Final line search alpha, max atom move = 0.0097656003 0.0088127615
  Iterations, force evaluations = 3 5

write_data final_structure_11.data
System init for write_data ...

# Dump final structure in XYZ format for DFT input
write_dump all xyz final_structure_11.xyz

# Move back to parent directory
shell cd ..

# Increment loop
next i
jump SELF loop_start
clear  # 초기화

# Create and move to a new directory for this run
shell mkdir run_12
shell cd run_12

# LAMMPS Input Script for Finding O2- Adsorption Site for DFT
units real
atom_style charge  # ReaxFF requires charge
boundary p p p  # Periodic boundary conditions

# Copy input files to the new directory
shell cp ../chelpg_updated_honokiol_2_remove_bond.data .
shell cp ../chelpg_updated_O2_remove_bond.data .
shell cp ../ffield.reax.rdx .

# Read input data files
read_data chelpg_updated_honokiol_2_remove_bond.data
Reading data file ...
  orthogonal box = (-15 -15 -15) to (15 15 15)
  reading atoms ...
  38 atoms
read_data chelpg_updated_O2_remove_bond.data add append
Reading data file ...
  orthogonal box = (-15 -15 -15) to (15 15 15)
  reading atoms ...
  2 atoms

# Define groups
group honokiol type 1 2 3  # Honokiol (C, H, O)
38 atoms in group honokiol
group O2molecule type 4  # O2- (assumed type 4)
2 atoms in group O2molecule

# Fix Honokiol to prevent unwanted movement
fix freeze honokiol setforce 0.0 0.0 0.0

# Define ReaxFF pair style and parameters
pair_style reax/c NULL
pair_coeff * * ffield.reax.rdx C H O O  # O2- included
Reading potential file ffield.reax.rdx with DATE: 2010-02-19

# Charge equilibration (QEq) required for ReaxFF
fix 1 all qeq/reaxff 1 0.0 10.0 1.0e-6 reaxff

# Define MSD computation
compute msdO O2molecule msd

# Generate different random positions for O2-
variable seed1 equal 12345+v_i*1000
variable seed2 equal 67890+v_i*1000
variable seed3 equal 54321+v_i*1000
variable dx equal random(-5,5,v_seed1)
variable dy equal random(-5,5,v_seed2)
variable dz equal random(-5,5,v_seed3)
displace_atoms O2molecule move -0.0017315149307251 -4.61497068405151 -1.29346013069153 units box
Displacing atoms ...

# Initial energy minimization to relax high-force configurations
minimize 1.0e-6 1.0e-8 5000 10000
Step          Temp          E_pair         E_mol          TotEng         Press
0   0             -4830.3351      0             -4830.3351      1543.2288
Loop time of 0.0056514 on 1 procs for 10 steps with 40 atoms

Minimization stats:
  Stopping criterion = energy tolerance
  Energy initial, next-to-last, final =
  Force two-norm initial, final = 423.54608 13.204033
  Force max component initial, final = 299.6927 9.4841809
  Final line search alpha, max atom move = 0.0019885125 0.018859412
  Iterations, force evaluations = 10 17

write_data minimized_structure_12.data
System init for write_data ...

# Run NVT MD simulation for O2- to find adsorption site
fix nvt O2molecule nvt temp 300.0 300.0 100.0

fix msdout O2molecule ave/time 100 1 100 c_msdO[1] file msd_O2_12.dat
fix msdoutX O2molecule ave/time 100 1 100 c_msdO[2] file msd_O2_X_12.dat
fix msdoutY O2molecule ave/time 100 1 100 c_msdO[3] file msd_O2_Y_12.dat
fix msdoutZ O2molecule ave/time 100 1 100 c_msdO[4] file msd_O2_Z_12.dat

# Save total energy to a file
variable etotal equal pe+ke

# Bond Order Analysis (Check if O2- is binding)
fix bonds all reax/c/bonds 1000 bonds_12.reax

# Output settings: Save trajectory and bond information
thermo 100
thermo_style custom step temp pe ke etotal press
dump 12 all atom 100 dump_12.lammpstrj

timestep 0.25
run 200000  # 1000 ps
Step          Temp          PotEng         KinEng         TotEng         Press
10   0             -4852.091       0             -4852.091       1890.4894
Averages over the last 1001 of 2002 rows, steps 100100 to 200010:
Temp PotEng KinEng TotEng Press
8.0742 -4857.69 0.938639 -4856.76 1889.95
Loop time of 63.375 on 1 procs for 200000 steps with 40 atoms

# Final energy minimization for most stable adsorption structure
unfix nvt
minimize 1.0e-6 1.0e-8 5000 10000
Step          Temp          PotEng         KinEng         TotEng         Press
200010   9.1914853     -4858.2045      1.0685248     -4857.136       1888.1213
Loop time of 0.0061054 on 1 procs for 6 steps with 40 atoms

Minimization stats:
  Stopping criterion = energy tolerance
  Energy initial, next-to-last, final =
  Force two-norm initial, final = 1.4185184 2.4832349
  Force max component initial, final = 0.74425795 1.4688524
  Final line search alpha, max atom move = 0.029334614 0.043088218
  Iterations, force evaluations = 6 16

write_data final_structure_12.data
System init for write_data ...

# Dump final structure in XYZ format for DFT input
write_dump all xyz final_structure_12.xyz

# Move back to parent directory
shell cd ..

# Increment loop
next i
jump SELF loop_start
clear  # 초기화

# Create and move to a new directory for this run
shell mkdir run_13
shell cd run_13

# LAMMPS Input Script for Finding O2- Adsorption Site for DFT
units real
atom_style charge  # ReaxFF requires charge
boundary p p p  # Periodic boundary conditions

# Copy input files to the new directory
shell cp ../chelpg_updated_honokiol_2_remove_bond.data .
shell cp ../chelpg_updated_O2_remove_bond.data .
shell cp ../ffield.reax.rdx .

# Read input data files
read_data chelpg_updated_honokiol_2_remove_bond.data
Reading data file ...
  orthogonal box = (-15 -15 -15) to (15 15 15)
  reading atoms ...
  38 atoms
read_data chelpg_updated_O2_remove_bond.data add append
Reading data file ...
  orthogonal box = (-15 -15 -15) to (15 15 15)
  reading atoms ...
  2 atoms

# Define groups
group honokiol type 1 2 3  # Honokiol (C, H, O)
38 atoms in group honokiol
group O2molecule type 4  # O2- (assumed type 4)
2 atoms in group O2molecule

# Fix Honokiol to prevent unwanted movement
fix freeze honokiol setforce 0.0 0.0 0.0

# Define ReaxFF pair style and parameters
pair_style reax/c NULL
pair_coeff * * ffield.reax.rdx C H O O  # O2- included
Reading potential file ffield.reax.rdx with DATE: 2010-02-19

# Charge equilibration (QEq) required for ReaxFF
fix 1 all qeq/reaxff 1 0.0 10.0 1.0e-6 reaxff

# Define MSD computation
compute msdO O2molecule msd

# Generate different random positions for O2-
variable seed1 equal 12345+v_i*1000
variable seed2 equal 67890+v_i*1000
variable seed3 equal 54321+v_i*1000
variable dx equal random(-5,5,v_seed1)
variable dy equal random(-5,5,v_seed2)
variable dz equal random(-5,5,v_seed3)
displace_atoms O2molecule move -1.74142479896545 4.58803832530975 -1.03047311306 units box
Displacing atoms ...

# Initial energy minimization to relax high-force configurations
minimize 1.0e-6 1.0e-8 5000 10000
Step          Temp          E_pair         E_mol          TotEng         Press
0   0             -4827.3353      0             -4827.3353      1560.3248
Loop time of 0.0055112 on 1 procs for 10 steps with 40 atoms

Minimization stats:
  Stopping criterion = energy tolerance
  Energy initial, next-to-last, final =
  Force two-norm initial, final = 424.46703 1.9414567
  Force max component initial, final = 300.39898 1.0584001
  Final line search alpha, max atom move = 0.043373717 0.045906749
  Iterations, force evaluations = 10 16

write_data minimized_structure_13.data
System init for write_data ...

# Run NVT MD simulation for O2- to find adsorption site
fix nvt O2molecule nvt temp 300.0 300.0 100.0

fix msdout O2molecule ave/time 100 1 100 c_msdO[1] file msd_O2_13.dat
fix msdoutX O2molecule ave/time 100 1 100 c_msdO[2] file msd_O2_X_13.dat
fix msdoutY O2molecule ave/time 100 1 100 c_msdO[3] file msd_O2_Y_13.dat
fix msdoutZ O2molecule ave/time 100 1 100 c_msdO[4] file msd_O2_Z_13.dat

# Save total energy to a file
variable etotal equal pe+ke

# Bond Order Analysis (Check if O2- is binding)
fix bonds all reax/c/bonds 1000 bonds_13.reax

# Output settings: Save trajectory and bond information
thermo 100
thermo_style custom step temp pe ke etotal press
dump 13 all atom 100 dump_13.lammpstrj

timestep 0.25
run 200000  # 1000 ps
Step          Temp          PotEng         KinEng         TotEng         Press
10   0             -4850.0322      0             -4850.0322      1889.4419
Averages over the last 1001 of 2002 rows, steps 100100 to 200010:
Temp PotEng KinEng TotEng Press
8.07107 -4860.43 0.938275 -4859.49 1892.17
Loop time of 63.3146 on 1 procs for 200000 steps with 40 atoms

# Final energy minimization for most stable adsorption structure
unfix nvt
minimize 1.0e-6 1.0e-8 5000 10000
Step          Temp          PotEng         KinEng         TotEng         Press
200010   3.9976352     -4860.8401      0.46473145    -4860.3754      1886.5361
Loop time of 0.0030711 on 1 procs for 4 steps with 40 atoms

Minimization stats:
  Stopping criterion = energy tolerance
  Energy initial, next-to-last, final =
  Force two-norm initial, final = 1.9426141 0.99102346
  Force max component initial, final = 1.4537323 0.85889573
  Final line search alpha, max atom move = 0.12749216 0.10950247
  Iterations, force evaluations = 4 7

write_data final_structure_13.data
System init for write_data ...

# Dump final structure in XYZ format for DFT input
write_dump all xyz final_structure_13.xyz

# Move back to parent directory
shell cd ..

# Increment loop
next i
jump SELF loop_start
clear  # 초기화

# Create and move to a new directory for this run
shell mkdir run_14
shell cd run_14

# LAMMPS Input Script for Finding O2- Adsorption Site for DFT
units real
atom_style charge  # ReaxFF requires charge
boundary p p p  # Periodic boundary conditions

# Copy input files to the new directory
shell cp ../chelpg_updated_honokiol_2_remove_bond.data .
shell cp ../chelpg_updated_O2_remove_bond.data .
shell cp ../ffield.reax.rdx .

# Read input data files
read_data chelpg_updated_honokiol_2_remove_bond.data
Reading data file ...
  orthogonal box = (-15 -15 -15) to (15 15 15)
  reading atoms ...
  38 atoms
read_data chelpg_updated_O2_remove_bond.data add append
Reading data file ...
  orthogonal box = (-15 -15 -15) to (15 15 15)
  reading atoms ...
  2 atoms

# Define groups
group honokiol type 1 2 3  # Honokiol (C, H, O)
38 atoms in group honokiol
group O2molecule type 4  # O2- (assumed type 4)
2 atoms in group O2molecule

# Fix Honokiol to prevent unwanted movement
fix freeze honokiol setforce 0.0 0.0 0.0

# Define ReaxFF pair style and parameters
pair_style reax/c NULL
pair_coeff * * ffield.reax.rdx C H O O  # O2- included
Reading potential file ffield.reax.rdx with DATE: 2010-02-19

# Charge equilibration (QEq) required for ReaxFF
fix 1 all qeq/reaxff 1 0.0 10.0 1.0e-6 reaxff

# Define MSD computation
compute msdO O2molecule msd

# Generate different random positions for O2-
variable seed1 equal 12345+v_i*1000
variable seed2 equal 67890+v_i*1000
variable seed3 equal 54321+v_i*1000
variable dx equal random(-5,5,v_seed1)
variable dy equal random(-5,5,v_seed2)
variable dz equal random(-5,5,v_seed3)
displace_atoms O2molecule move -3.99776220321655 -3.06174516677856 1.39943599700928 units box
Displacing atoms ...

# Initial energy minimization to relax high-force configurations
minimize 1.0e-6 1.0e-8 5000 10000
Step          Temp          E_pair         E_mol          TotEng         Press
0   0             -4748.6189      0             -4748.6189      1984.1774
Loop time of 0.0127874 on 1 procs for 25 steps with 40 atoms

Minimization stats:
  Stopping criterion = energy tolerance
  Energy initial, next-to-last, final =
  Force two-norm initial, final = 327.90261 1.5560319
  Force max component initial, final = 233.60911 0.93288261
  Final line search alpha, max atom move = 0.057480192 0.053622272
  Iterations, force evaluations = 25 37

write_data minimized_structure_14.data
System init for write_data ...

# Run NVT MD simulation for O2- to find adsorption site
fix nvt O2molecule nvt temp 300.0 300.0 100.0

fix msdout O2molecule ave/time 100 1 100 c_msdO[1] file msd_O2_14.dat
fix msdoutX O2molecule ave/time 100 1 100 c_msdO[2] file msd_O2_X_14.dat
fix msdoutY O2molecule ave/time 100 1 100 c_msdO[3] file msd_O2_Y_14.dat
fix msdoutZ O2molecule ave/time 100 1 100 c_msdO[4] file msd_O2_Z_14.dat

# Save total energy to a file
variable etotal equal pe+ke

# Bond Order Analysis (Check if O2- is binding)
fix bonds all reax/c/bonds 1000 bonds_14.reax

# Output settings: Save trajectory and bond information
thermo 100
thermo_style custom step temp pe ke etotal press
dump 14 all atom 100 dump_14.lammpstrj

timestep 0.25
run 200000  # 1000 ps
Loop time of 63.9079 on 1 procs for 200000 steps with 40 atoms

# Final energy minimization for most stable adsorption structure
unfix nvt
minimize 1.0e-6 1.0e-8 5000 10000
Loop time of 0.0068304 on 1 procs for 10 steps with 40 atoms

Minimization stats:
  Stopping criterion = energy tolerance
  Energy initial, next-to-last, final =
  Force two-norm initial, final = 2.3168325 1.1406682
  Force max component initial, final = 1.2678517 1.0152816
  Final line search alpha, max atom move = 0.0565818 0.057446458
  Iterations, force evaluations = 10 18

write_data final_structure_14.data
System init for write_data ...

# Dump final structure in XYZ format for DFT input
write_dump all xyz final_structure_14.xyz

# Move back to parent directory
shell cd ..

# Increment loop
next i
jump SELF loop_start
clear  # 초기화

# Create and move to a new directory for this run
shell mkdir run_15
shell cd run_15

# LAMMPS Input Script for Finding O2- Adsorption Site for DFT
units real
atom_style charge  # ReaxFF requires charge
boundary p p p  # Periodic boundary conditions

# Copy input files to the new directory
shell cp ../chelpg_updated_honokiol_2_remove_bond.data .
shell cp ../chelpg_updated_O2_remove_bond.data .
shell cp ../ffield.reax.rdx .

# Read input data files
read_data chelpg_updated_honokiol_2_remove_bond.data
Reading data file ...
  orthogonal box = (-15 -15 -15) to (15 15 15)
  reading atoms ...
  38 atoms
read_data chelpg_updated_O2_remove_bond.data add append
Reading data file ...
  orthogonal box = (-15 -15 -15) to (15 15 15)
  reading atoms ...
  2 atoms

# Define groups
group honokiol type 1 2 3  # Honokiol (C, H, O)
38 atoms in group honokiol
group O2molecule type 4  # O2- (assumed type 4)
2 atoms in group O2molecule

# Fix Honokiol to prevent unwanted movement
fix freeze honokiol setforce 0.0 0.0 0.0

# Define ReaxFF pair style and parameters
pair_style reax/c NULL
pair_coeff * * ffield.reax.rdx C H O O  # O2- included
Reading potential file ffield.reax.rdx with DATE: 2010-02-19

# Charge equilibration (QEq) required for ReaxFF
fix 1 all qeq/reaxff 1 0.0 10.0 1.0e-6 reaxff

# Define MSD computation
compute msdO O2molecule msd

# Generate different random positions for O2-
variable seed1 equal 12345+v_i*1000
variable seed2 equal 67890+v_i*1000
variable seed3 equal 54321+v_i*1000
variable dx equal random(-5,5,v_seed1)
variable dy equal random(-5,5,v_seed2)
variable dz equal random(-5,5,v_seed3)
displace_atoms O2molecule move 3.96121442317963 3.2148152589798 0.210283994674683 units box
Displacing atoms ...

# Initial energy minimization to relax high-force configurations
minimize 1.0e-6 1.0e-8 5000 10000
Loop time of 0.0068392 on 1 procs for 12 steps with 40 atoms

Minimization stats:
  Stopping criterion = energy tolerance
  Energy initial, next-to-last, final =
  Force two-norm initial, final = 413.45896 0.69649238
  Force max component initial, final = 295.47713 0.50660545
  Final line search alpha, max atom move = 0.0046962538 0.0023791478
  Iterations, force evaluations = 12 20

write_data minimized_structure_15.data
System init for write_data ...

# Run NVT MD simulation for O2- to find adsorption site
fix nvt O2molecule nvt temp 300.0 300.0 100.0

fix msdout O2molecule ave/time 100 1 100 c_msdO[1] file msd_O2_15.dat
fix msdoutX O2molecule ave/time 100 1 100 c_msdO[2] file msd_O2_X_15.dat
fix msdoutY O2molecule ave/time 100 1 100 c_msdO[3] file msd_O2_Y_15.dat
fix msdoutZ O2molecule ave/time 100 1 100 c_msdO[4] file msd_O2_Z_15.dat

# Save total energy to a file
variable etotal equal pe+ke

# Bond Order Analysis (Check if O2- is binding)
fix bonds all reax/c/bonds 1000 bonds_15.reax

# Output settings: Save trajectory and bond information
thermo 100
thermo_style custom step temp pe ke etotal press
dump 15 all atom 100 dump_15.lammpstrj

timestep 0.25
run 200000  # 1000 ps
Loop time of 63.1654 on 1 procs for 200000 steps with 40 atoms

# Final energy minimization for most stable adsorption structure
unfix nvt
minimize 1.0e-6 1.0e-8 5000 10000
Loop time of 0.0022011 on 1 procs for 1 steps with 40 atoms

Minimization stats:
  Stopping criterion = energy tolerance
  Energy initial, next-to-last, final =
  Force two-norm initial, final = 2.3904214 1.9419531
  Force max component initial, final = 1.9020362 1.5375139
  Final line search alpha, max atom move = 0.052575236 0.080835157
  Iterations, force evaluations = 1 2

write_data final_structure_15.data
System init for write_data ...

# Dump final structure in XYZ format for DFT input
write_dump all xyz final_structure_15.xyz

# Move back to parent directory
shell cd ..

# Increment loop
next i
jump SELF loop_start
clear  # 초기화

# Create and move to a new directory for this run
shell mkdir run_16
shell cd run_16

# LAMMPS Input Script for Finding O2- Adsorption Site for DFT
units real
atom_style charge  # ReaxFF requires charge
boundary p p p  # Periodic boundary conditions

# Copy input files to the new directory
shell cp ../chelpg_updated_honokiol_2_remove_bond.data .
shell cp ../chelpg_updated_O2_remove_bond.data .
shell cp ../ffield.reax.rdx .

# Read input data files
read_data chelpg_updated_honokiol_2_remove_bond.data
Reading data file ...
  orthogonal box = (-15 -15 -15) to (15 15 15)
  reading atoms ...
  38 atoms
read_data chelpg_updated_O2_remove_bond.data add append
Reading data file ...
  orthogonal box = (-15 -15 -15) to (15 15 15)
  reading atoms ...
  2 atoms

# Define groups
group honokiol type 1 2 3  # Honokiol (C, H, O)
38 atoms in group honokiol
group O2molecule type 4  # O2- (assumed type 4)
2 atoms in group O2molecule

# Fix Honokiol to prevent unwanted movement
fix freeze honokiol setforce 0.0 0.0 0.0

# Define ReaxFF pair style and parameters
pair_style reax/c NULL
pair_coeff * * ffield.reax.rdx C H O O  # O2- included
Reading potential file ffield.reax.rdx with DATE: 2010-02-19

# Charge equilibration (QEq) required for ReaxFF
fix 1 all qeq/reaxff 1 0.0 10.0 1.0e-6 reaxff

# Define MSD computation
compute msdO O2molecule msd

# Generate different random positions for O2-
variable seed1 equal 12345+v_i*1000
variable seed2 equal 67890+v_i*1000
variable seed3 equal 54321+v_i*1000
variable dx equal random(-5,5,v_seed1)
variable dy equal random(-5,5,v_seed2)
variable dz equal random(-5,5,v_seed3)
displace_atoms O2molecule move -0.351846218109131 -3.35696876049042 -0.743851065635681 units box
Displacing atoms ...

# Initial energy minimization to relax high-force configurations
minimize 1.0e-6 1.0e-8 5000 10000
Loop time of 0.0032209 on 1 procs for 5 steps with 40 atoms

Minimization stats:
  Stopping criterion = energy tolerance
  Energy initial, next-to-last, final =
  Force two-norm initial, final = 423.04215 24.9453
  Force max component initial, final = 299.41556 17.789936
  Final line search alpha, max atom move = 0.00060659933 0.010791363
  Iterations, force evaluations = 5 9

write_data minimized_structure_16.data
System init for write_data ...

# Run NVT MD simulation for O2- to find adsorption site
fix nvt O2molecule nvt temp 300.0 300.0 100.0

fix msdout O2molecule ave/time 100 1 100 c_msdO[1] file msd_O2_16.dat
fix msdoutX O2molecule ave/time 100 1 100 c_msdO[2] file msd_O2_X_16.dat
fix msdoutY O2molecule ave/time 100 1 100 c_msdO[3] file msd_O2_Y_16.dat
fix msdoutZ O2molecule ave/time 100 1 100 c_msdO[4] file msd_O2_Z_16.dat

# Save total energy to a file
variable etotal equal pe+ke

# Bond Order Analysis (Check if O2- is binding)
fix bonds all reax/c/bonds 1000 bonds_16.reax

# Output settings: Save trajectory and bond information
thermo 100
thermo_style custom step temp pe ke etotal press
dump 16 all atom 100 dump_16.lammpstrj

timestep 0.25
run 200000  # 1000 ps
Loop time of 63.1366 on 1 procs for 200000 steps with 40 atoms

# Final energy minimization for most stable adsorption structure
unfix nvt
minimize 1.0e-6 1.0e-8 5000 10000
Loop time of 0.0015062 on 1 procs for 1 steps with 40 atoms

Minimization stats:
  Stopping criterion = energy tolerance
  Energy initial, next-to-last, final =
  Force two-norm initial, final = 2.0297613 6.3918423
  Force max component initial, final = 1.570106 3.8256848
  Final line search alpha, max atom move = 0.063689968 0.24365775
  Iterations, force evaluations = 1 2

write_data final_structure_16.data
System init for write_data ...

# Dump final structure in XYZ format for DFT input
write_dump all xyz final_structure_16.xyz

# Move back to parent directory
shell cd ..

# Increment loop
next i
jump SELF loop_start
clear  # 초기화

# Create and move to a new directory for this run
shell mkdir run_17
shell cd run_17

# LAMMPS Input Script for Finding O2- Adsorption Site for DFT
units real
atom_style charge  # ReaxFF requires charge
boundary p p p  # Periodic boundary conditions

# Copy input files to the new directory
shell cp ../chelpg_updated_honokiol_2_remove_bond.data .
shell cp ../chelpg_updated_O2_remove_bond.data .
shell cp ../ffield.reax.rdx .

# Read input data files
read_data chelpg_updated_honokiol_2_remove_bond.data
Reading data file ...
  orthogonal box = (-15 -15 -15) to (15 15 15)
  reading atoms ...
  38 atoms
read_data chelpg_updated_O2_remove_bond.data add append
Reading data file ...
  orthogonal box = (-15 -15 -15) to (15 15 15)
  reading atoms ...
  2 atoms

# Define groups
group honokiol type 1 2 3  # Honokiol (C, H, O)
38 atoms in group honokiol
group O2molecule type 4  # O2- (assumed type 4)
2 atoms in group O2molecule

# Fix Honokiol to prevent unwanted movement
fix freeze honokiol setforce 0.0 0.0 0.0

# Define ReaxFF pair style and parameters
pair_style reax/c NULL
pair_coeff * * ffield.reax.rdx C H O O  # O2- included
Reading potential file ffield.reax.rdx with DATE: 2010-02-19

# Charge equilibration (QEq) required for ReaxFF
fix 1 all qeq/reaxff 1 0.0 10.0 1.0e-6 reaxff

# Define MSD computation
compute msdO O2molecule msd

# Generate different random positions for O2-
variable seed1 equal 12345+v_i*1000
variable seed2 equal 67890+v_i*1000
variable seed3 equal 54321+v_i*1000
variable dx equal random(-5,5,v_seed1)
variable dy equal random(-5,5,v_seed2)
variable dz equal random(-5,5,v_seed3)
displace_atoms O2molecule move 1.15942895412445 -2.47552931308746 3.79636704921722 units box
Displacing atoms ...

# Initial energy minimization to relax high-force configurations
minimize 1.0e-6 1.0e-8 5000 10000
Loop time of 0.0031558 on 1 procs for 4 steps with 40 atoms

Minimization stats:
  Stopping criterion = energy tolerance
  Energy initial, next-to-last, final =
  Force two-norm initial, final = 423.45539 12.38811
  Force max component initial, final = 300.50038 8.9741469
  Final line search alpha, max atom move = 0.016892986 0.15160014
  Iterations, force evaluations = 4 7

write_data minimized_structure_17.data
System init for write_data ...

# Run NVT MD simulation for O2- to find adsorption site
fix nvt O2molecule nvt temp 300.0 300.0 100.0

fix msdout O2molecule ave/time 100 1 100 c_msdO[1] file msd_O2_17.dat
fix msdoutX O2molecule ave/time 100 1 100 c_msdO[2] file msd_O2_X_17.dat
fix msdoutY O2molecule ave/time 100 1 100 c_msdO[3] file msd_O2_Y_17.dat
fix msdoutZ O2molecule ave/time 100 1 100 c_msdO[4] file msd_O2_Z_17.dat

# Save total energy to a file
variable etotal equal pe+ke

# Bond Order Analysis (Check if O2- is binding)
fix bonds all reax/c/bonds 1000 bonds_17.reax

# Output settings: Save trajectory and bond information
thermo 100
thermo_style custom step temp pe ke etotal press
dump 17 all atom 100 dump_17.lammpstrj

timestep 0.25
run 200000  # 1000 ps
Loop time of 62.6513 on 1 procs for 200000 steps with 40 atoms

# Final energy minimization for most stable adsorption structure
unfix nvt
minimize 1.0e-6 1.0e-8 5000 10000
Loop time of 0.0014289 on 1 procs for 1 steps with 40 atoms

Minimization stats:
  Stopping criterion = energy tolerance
  Energy initial, next-to-last, final =
  Force two-norm initial, final = 2.5745204 2.0797742
  Force max component initial, final = 1.4214221 1.7278557
  Final line search alpha, max atom move = 0.070352081 0.12155825
  Iterations, force evaluations = 1 2

write_data final_structure_17.data
System init for write_data ...

# Dump final structure in XYZ format for DFT input
write_dump all xyz final_structure_17.xyz

# Move back to parent directory
shell cd ..

# Increment loop
next i
jump SELF loop_start
clear  # 초기화

# Create and move to a new directory for this run
shell mkdir run_18
shell cd run_18

# LAMMPS Input Script for Finding O2- Adsorption Site for DFT
units real
atom_style charge  # ReaxFF requires charge
boundary p p p  # Periodic boundary conditions

# Copy input files to the new directory
shell cp ../chelpg_updated_honokiol_2_remove_bond.data .
shell cp ../chelpg_updated_O2_remove_bond.data .
shell cp ../ffield.reax.rdx .

# Read input data files
read_data chelpg_updated_honokiol_2_remove_bond.data
Reading data file ...
  orthogonal box = (-15 -15 -15) to (15 15 15)
  reading atoms ...
  38 atoms
read_data chelpg_updated_O2_remove_bond.data add append
Reading data file ...
  orthogonal box = (-15 -15 -15) to (15 15 15)
  reading atoms ...
  2 atoms

# Define groups
group honokiol type 1 2 3  # Honokiol (C, H, O)
38 atoms in group honokiol
group O2molecule type 4  # O2- (assumed type 4)
2 atoms in group O2molecule

# Fix Honokiol to prevent unwanted movement
fix freeze honokiol setforce 0.0 0.0 0.0

# Define ReaxFF pair style and parameters
pair_style reax/c NULL
pair_coeff * * ffield.reax.rdx C H O O  # O2- included
Reading potential file ffield.reax.rdx with DATE: 2010-02-19

# Charge equilibration (QEq) required for ReaxFF
fix 1 all qeq/reaxff 1 0.0 10.0 1.0e-6 reaxff

# Define MSD computation
compute msdO O2molecule msd

# Generate different random positions for O2-
variable seed1 equal 12345+v_i*1000
variable seed2 equal 67890+v_i*1000
variable seed3 equal 54321+v_i*1000
variable dx equal random(-5,5,v_seed1)
variable dy equal random(-5,5,v_seed2)
variable dz equal random(-5,5,v_seed3)
displace_atoms O2molecule move 3.47892105579376 4.99062597751617 3.00726592540741 units box
Displacing atoms ...

# Initial energy minimization to relax high-force configurations
minimize 1.0e-6 1.0e-8 5000 10000
Loop time of 0.0035148 on 1 procs for 5 steps with 40 atoms

Minimization stats:
  Stopping criterion = energy tolerance
  Energy initial, next-to-last, final =
  Force two-norm initial, final = 424.25847 0.9895511
  Force max component initial, final = 300.10125 0.70857946
  Final line search alpha, max atom move = 0.045947692 0.032557591
  Iterations, force evaluations = 5 9

write_data minimized_structure_18.data
System init for write_data ...

# Run NVT MD simulation for O2- to find adsorption site
fix nvt O2molecule nvt temp 300.0 300.0 100.0

fix msdout O2molecule ave/time 100 1 100 c_msdO[1] file msd_O2_18.dat
fix msdoutX O2molecule ave/time 100 1 100 c_msdO[2] file msd_O2_X_18.dat
fix msdoutY O2molecule ave/time 100 1 100 c_msdO[3] file msd_O2_Y_18.dat
fix msdoutZ O2molecule ave/time 100 1 100 c_msdO[4] file msd_O2_Z_18.dat

# Save total energy to a file
variable etotal equal pe+ke

# Bond Order Analysis (Check if O2- is binding)
fix bonds all reax/c/bonds 1000 bonds_18.reax

# Output settings: Save trajectory and bond information
thermo 100
thermo_style custom step temp pe ke etotal press
dump 18 all atom 100 dump_18.lammpstrj

timestep 0.25
run 200000  # 1000 ps
Loop time of 62.9824 on 1 procs for 200000 steps with 40 atoms

# Final energy minimization for most stable adsorption structure
unfix nvt
minimize 1.0e-6 1.0e-8 5000 10000
Loop time of 0.0032891 on 1 procs for 5 steps with 40 atoms

Minimization stats:
  Stopping criterion = energy tolerance
  Energy initial, next-to-last, final =
  Force two-norm initial, final = 1.8458381 2.6899307
  Force max component initial, final = 1.3235935 2.0336889
  Final line search alpha, max atom move = 0.060206651 0.1224416
  Iterations, force evaluations = 5 8

write_data final_structure_18.data
System init for write_data ...

# Dump final structure in XYZ format for DFT input
write_dump all xyz final_structure_18.xyz

# Move back to parent directory
shell cd ..

# Increment loop
next i
jump SELF loop_start
clear  # 초기화

# Create and move to a new directory for this run
shell mkdir run_19
shell cd run_19

# LAMMPS Input Script for Finding O2- Adsorption Site for DFT
units real
atom_style charge  # ReaxFF requires charge
boundary p p p  # Periodic boundary conditions

# Copy input files to the new directory
shell cp ../chelpg_updated_honokiol_2_remove_bond.data .
shell cp ../chelpg_updated_O2_remove_bond.data .
shell cp ../ffield.reax.rdx .

# Read input data files
read_data chelpg_updated_honokiol_2_remove_bond.data
Reading data file ...
  orthogonal box = (-15 -15 -15) to (15 15 15)
  reading atoms ...
  38 atoms
read_data chelpg_updated_O2_remove_bond.data add append
Reading data file ...
  orthogonal box = (-15 -15 -15) to (15 15 15)
  reading atoms ...
  2 atoms

# Define groups
group honokiol type 1 2 3  # Honokiol (C, H, O)
38 atoms in group honokiol
group O2molecule type 4  # O2- (assumed type 4)
2 atoms in group O2molecule

# Fix Honokiol to prevent unwanted movement
fix freeze honokiol setforce 0.0 0.0 0.0

# Define ReaxFF pair style and parameters
pair_style reax/c NULL
pair_coeff * * ffield.reax.rdx C H O O  # O2- included
Reading potential file ffield.reax.rdx with DATE: 2010-02-19

# Charge equilibration (QEq) required for ReaxFF
fix 1 all qeq/reaxff 1 0.0 10.0 1.0e-6 reaxff

# Define MSD computation
compute msdO O2molecule msd

# Generate different random positions for O2-
variable seed1 equal 12345+v_i*1000
variable seed2 equal 67890+v_i*1000
variable seed3 equal 54321+v_i*1000
variable dx equal random(-5,5,v_seed1)
variable dy equal random(-5,5,v_seed2)
variable dz equal random(-5,5,v_seed3)
displace_atoms O2molecule move -3.23231101036072 -4.88710701465607 -2.65374481678009 units box
Displacing atoms ...

# Initial energy minimization to relax high-force configurations
minimize 1.0e-6 1.0e-8 5000 10000
Loop time of 0.0057971 on 1 procs for 10 steps with 40 atoms

Minimization stats:
  Stopping criterion = energy tolerance
  Energy initial, next-to-last, final =
  Force two-norm initial, final = 423.82366 8.5198427
  Force max component initial, final = 299.77254 6.0659588
  Final line search alpha, max atom move = 0.0062964997 0.038194308
  Iterations, force evaluations = 10 17

write_data minimized_structure_19.data
System init for write_data ...

# Run NVT MD simulation for O2- to find adsorption site
fix nvt O2molecule nvt temp 300.0 300.0 100.0

fix msdout O2molecule ave/time 100 1 100 c_msdO[1] file msd_O2_19.dat
fix msdoutX O2molecule ave/time 100 1 100 c_msdO[2] file msd_O2_X_19.dat
fix msdoutY O2molecule ave/time 100 1 100 c_msdO[3] file msd_O2_Y_19.dat
fix msdoutZ O2molecule ave/time 100 1 100 c_msdO[4] file msd_O2_Z_19.dat

# Save total energy to a file
variable etotal equal pe+ke

# Bond Order Analysis (Check if O2- is binding)
fix bonds all reax/c/bonds 1000 bonds_19.reax

# Output settings: Save trajectory and bond information
thermo 100
thermo_style custom step temp pe ke etotal press
dump 19 all atom 100 dump_19.lammpstrj

timestep 0.25
run 200000  # 1000 ps
Loop time of 64.5642 on 1 procs for 200000 steps with 40 atoms

# Final energy minimization for most stable adsorption structure
unfix nvt
minimize 1.0e-6 1.0e-8 5000 10000
Loop time of 0.0077914 on 1 procs for 7 steps with 40 atoms

Minimization stats:
  Stopping criterion = energy tolerance
  Energy initial, next-to-last, final =
  Force two-norm initial, final = 1.8834712 1.9206619
  Force max component initial, final = 1.4420761 1.2582548
  Final line search alpha, max atom move = 0.0029044687 0.0036545619
  Iterations, force evaluations = 7 22

write_data final_structure_19.data
System init for write_data ...

# Dump final structure in XYZ format for DFT input
write_dump all xyz final_structure_19.xyz

# Move back to parent directory
shell cd ..

# Increment loop
next i
jump SELF loop_start
clear  # 초기화

# Create and move to a new directory for this run
shell mkdir run_20
shell cd run_20

# LAMMPS Input Script for Finding O2- Adsorption Site for DFT
units real
atom_style charge  # ReaxFF requires charge
boundary p p p  # Periodic boundary conditions

# Copy input files to the new directory
shell cp ../chelpg_updated_honokiol_2_remove_bond.data .
shell cp ../chelpg_updated_O2_remove_bond.data .
shell cp ../ffield.reax.rdx .

# Read input data files
read_data chelpg_updated_honokiol_2_remove_bond.data
Reading data file ...
  orthogonal box = (-15 -15 -15) to (15 15 15)
  reading atoms ...
  38 atoms
read_data chelpg_updated_O2_remove_bond.data add append
Reading data file ...
  orthogonal box = (-15 -15 -15) to (15 15 15)
  reading atoms ...
  2 atoms

# Define groups
group honokiol type 1 2 3  # Honokiol (C, H, O)
38 atoms in group honokiol
group O2molecule type 4  # O2- (assumed type 4)
2 atoms in group O2molecule

# Fix Honokiol to prevent unwanted movement
fix freeze honokiol setforce 0.0 0.0 0.0

# Define ReaxFF pair style and parameters
pair_style reax/c NULL
pair_coeff * * ffield.reax.rdx C H O O  # O2- included
Reading potential file ffield.reax.rdx with DATE: 2010-02-19

# Charge equilibration (QEq) required for ReaxFF
fix 1 all qeq/reaxff 1 0.0 10.0 1.0e-6 reaxff

# Define MSD computation
compute msdO O2molecule msd

# Generate different random positions for O2-
variable seed1 equal 12345+v_i*1000
variable seed2 equal 67890+v_i*1000
variable seed3 equal 54321+v_i*1000
variable dx equal random(-5,5,v_seed1)
variable dy equal random(-5,5,v_seed2)
variable dz equal random(-5,5,v_seed3)
displace_atoms O2molecule move 3.57182860374451 0.257126688957214 2.57690072059631 units box
Displacing atoms ...

# Initial energy minimization to relax high-force configurations
minimize 1.0e-6 1.0e-8 5000 10000
Loop time of 0.0094419 on 1 procs for 19 steps with 40 atoms

Minimization stats:
  Stopping criterion = energy tolerance
  Energy initial, next-to-last, final =
  Force two-norm initial, final = 873.62969 3.9520862
  Force max component initial, final = 751.75132 2.9615638
  Final line search alpha, max atom move = 0.018140703 0.053724849
  Iterations, force evaluations = 19 26

write_data minimized_structure_20.data
System init for write_data ...

# Run NVT MD simulation for O2- to find adsorption site
fix nvt O2molecule nvt temp 300.0 300.0 100.0

fix msdout O2molecule ave/time 100 1 100 c_msdO[1] file msd_O2_20.dat
fix msdoutX O2molecule ave/time 100 1 100 c_msdO[2] file msd_O2_X_20.dat
fix msdoutY O2molecule ave/time 100 1 100 c_msdO[3] file msd_O2_Y_20.dat
fix msdoutZ O2molecule ave/time 100 1 100 c_msdO[4] file msd_O2_Z_20.dat

# Save total energy to a file
variable etotal equal pe+ke

# Bond Order Analysis (Check if O2- is binding)
fix bonds all reax/c/bonds 1000 bonds_20.reax

# Output settings: Save trajectory and bond information
thermo 100
thermo_style custom step temp pe ke etotal press
dump 20 all atom 100 dump_20.lammpstrj

timestep 0.25
run 200000  # 1000 ps
Loop time of 64.0213 on 1 procs for 200000 steps with 40 atoms

# Final energy minimization for most stable adsorption structure
unfix nvt
minimize 1.0e-6 1.0e-8 5000 10000
Loop time of 0.0015545 on 1 procs for 1 steps with 40 atoms

Minimization stats:
  Stopping criterion = energy tolerance
  Energy initial, next-to-last, final =
  Force two-norm initial, final = 0.70186723 2.9662074
  Force max component initial, final = 0.54932971 1.7743518
  Final line search alpha, max atom move = 0.18204004 0.32300306
  Iterations, force evaluations = 1 2

write_data final_structure_20.data
System init for write_data ...

# Dump final structure in XYZ format for DFT input
write_dump all xyz final_structure_20.xyz

# Move back to parent directory
shell cd ..

# Increment loop
next i
jump SELF loop_start
