
#======================================================================
# CRYSTAL DATA
#----------------------------------------------------------------------
data_VESTA_phase_1

_chemical_name_common                  'Zn2'
_cell_length_a                         10.457440
_cell_length_b                         10.457440
_cell_length_c                         24.873161
_cell_angle_alpha                      90.000000
_cell_angle_beta                       90.000000
_cell_angle_gamma                      120.000000
_cell_volume                           2355.658942
_space_group_name_H-M_alt              'P 1'
_space_group_IT_number                 1

loop_
_space_group_symop_operation_xyz
   'x, y, z'

loop_
   _atom_site_label
   _atom_site_occupancy
   _atom_site_fract_x
   _atom_site_fract_y
   _atom_site_fract_z
   _atom_site_adp_type
   _atom_site_U_iso_or_equiv
   _atom_site_type_symbol
   Zn1        1.0     0.083332     0.166667     0.048980    Uiso  ? Zn
   Zn2        1.0     0.083333     0.416667     0.048980    Uiso  ? Zn
   Zn3        1.0     0.083333     0.666667     0.048980    Uiso  ? Zn
   Zn4        1.0     0.083332     0.916667     0.048980    Uiso  ? Zn
   Zn5        1.0     0.333332     0.166667     0.048980    Uiso  ? Zn
   Zn6        1.0     0.333333     0.416667     0.048980    Uiso  ? Zn
   Zn7        1.0     0.333333     0.666667     0.048980    Uiso  ? Zn
   Zn8        1.0     0.333332     0.916667     0.048980    Uiso  ? Zn
   Zn9        1.0     0.583332     0.166667     0.048980    Uiso  ? Zn
   Zn10       1.0     0.583333     0.416667     0.048980    Uiso  ? Zn
   Zn11       1.0     0.583333     0.666667     0.048980    Uiso  ? Zn
   Zn12       1.0     0.583332     0.916667     0.048980    Uiso  ? Zn
   Zn13       1.0     0.833332     0.166667     0.048980    Uiso  ? Zn
   Zn14       1.0     0.833333     0.416667     0.048980    Uiso  ? Zn
   Zn15       1.0     0.833333     0.666667     0.048980    Uiso  ? Zn
   Zn16       1.0     0.833332     0.916667     0.048980    Uiso  ? Zn
   Zn17       1.0     0.083332     0.166667     0.146940    Uiso  ? Zn
   Zn18       1.0     0.083333     0.416667     0.146940    Uiso  ? Zn
   Zn19       1.0     0.083333     0.666667     0.146940    Uiso  ? Zn
   Zn20       1.0     0.083332     0.916667     0.146940    Uiso  ? Zn
   Zn21       1.0     0.333332     0.166667     0.146940    Uiso  ? Zn
   Zn22       1.0     0.333333     0.416667     0.146940    Uiso  ? Zn
   Zn23       1.0     0.333333     0.666667     0.146940    Uiso  ? Zn
   Zn24       1.0     0.333332     0.916667     0.146940    Uiso  ? Zn
   Zn25       1.0     0.583332     0.166667     0.146940    Uiso  ? Zn
   Zn26       1.0     0.583333     0.416667     0.146940    Uiso  ? Zn
   Zn27       1.0     0.583333     0.666667     0.146940    Uiso  ? Zn
   Zn28       1.0     0.583332     0.916667     0.146940    Uiso  ? Zn
   Zn29       1.0     0.833332     0.166667     0.146940    Uiso  ? Zn
   Zn30       1.0     0.833333     0.416667     0.146940    Uiso  ? Zn
   Zn31       1.0     0.833333     0.666667     0.146940    Uiso  ? Zn
   Zn32       1.0     0.833332     0.916667     0.146940    Uiso  ? Zn
   Zn33       1.0     0.166668     0.083333     0.048980    Uiso  ? Zn
   Zn34       1.0     0.166667     0.333333     0.048980    Uiso  ? Zn
   Zn35       1.0     0.166667     0.583333     0.048980    Uiso  ? Zn
   Zn36       1.0     0.166667     0.833332     0.048980    Uiso  ? Zn
   Zn37       1.0     0.416668     0.083333     0.048980    Uiso  ? Zn
   Zn38       1.0     0.416667     0.333333     0.048980    Uiso  ? Zn
   Zn39       1.0     0.416667     0.583333     0.048980    Uiso  ? Zn
   Zn40       1.0     0.416667     0.833332     0.048980    Uiso  ? Zn
   Zn41       1.0     0.666668     0.083333     0.048980    Uiso  ? Zn
   Zn42       1.0     0.666667     0.333333     0.048980    Uiso  ? Zn
   Zn43       1.0     0.666667     0.583333     0.048980    Uiso  ? Zn
   Zn44       1.0     0.666667     0.833332     0.048980    Uiso  ? Zn
   Zn45       1.0     0.916668     0.083333     0.048980    Uiso  ? Zn
   Zn46       1.0     0.916667     0.333333     0.048980    Uiso  ? Zn
   Zn47       1.0     0.916667     0.583333     0.048980    Uiso  ? Zn
   Zn48       1.0     0.916667     0.833332     0.048980    Uiso  ? Zn
   Zn49       1.0     0.166668     0.083333     0.146940    Uiso  ? Zn
   Zn50       1.0     0.166667     0.333333     0.146940    Uiso  ? Zn
   Zn51       1.0     0.166667     0.583333     0.146940    Uiso  ? Zn
   Zn52       1.0     0.166667     0.833332     0.146940    Uiso  ? Zn
   Zn53       1.0     0.416668     0.083333     0.146940    Uiso  ? Zn
   Zn54       1.0     0.416667     0.333333     0.146940    Uiso  ? Zn
   Zn55       1.0     0.416667     0.583333     0.146940    Uiso  ? Zn
   Zn56       1.0     0.416667     0.833332     0.146940    Uiso  ? Zn
   Zn57       1.0     0.666668     0.083333     0.146940    Uiso  ? Zn
   Zn58       1.0     0.666667     0.333333     0.146940    Uiso  ? Zn
   Zn59       1.0     0.666667     0.583333     0.146940    Uiso  ? Zn
   Zn60       1.0     0.666667     0.833332     0.146940    Uiso  ? Zn
   Zn61       1.0     0.916668     0.083333     0.146940    Uiso  ? Zn
   Zn62       1.0     0.916667     0.333333     0.146940    Uiso  ? Zn
   Zn63       1.0     0.916667     0.583333     0.146940    Uiso  ? Zn
   Zn64       1.0     0.916667     0.833332     0.146940    Uiso  ? Zn
   C1         1.0     0.446713     0.256128     0.453173    Uiso  ? C
   C2         1.0     0.471972     0.285040     0.397082    Uiso  ? C
   C3         1.0     0.405637     0.353493     0.368799    Uiso  ? C
   C4         1.0     0.563843     0.245816     0.368660    Uiso  ? C
   C5         1.0     0.430145     0.381687     0.314226    Uiso  ? C
   C6         1.0     0.588491     0.273897     0.314086    Uiso  ? C
   C7         1.0     0.522157     0.342493     0.285650    Uiso  ? C
   N1         1.0     0.425999     0.232408     0.499167    Uiso  ? N
   N2         1.0     0.546412     0.370256     0.231727    Uiso  ? N
   H1         1.0     0.499389     0.419388     0.211256    Uiso  ? H
   H2         1.0     0.612193     0.342603     0.211152    Uiso  ? H
   H3         1.0     0.615918     0.192797     0.389975    Uiso  ? H
   H4         1.0     0.334317     0.384485     0.390227    Uiso  ? H
   H5         1.0     0.660017     0.242712     0.292746    Uiso  ? H
   H6         1.0     0.377787     0.434811     0.292998    Uiso  ? H
