LAMMPS (2 Aug 2023 - Update 4)
# LAMMPS Input Script for Honokiol + O2- Adsorption Study
units real
atom_style charge  # ReaxFF requires charge
boundary p p p  # Periodic boundary conditions

# Read Honokiol first to define simulation box
read_data chelpg_updated_honokiol_2_remove_bond.data
Reading data file ...
  orthogonal box = (-15 -15 -15) to (15 15 15)
  reading atoms ...
  38 atoms

# Now append O2- molecule
read_data chelpg_updated_O2_remove_bond.data add append
Reading data file ...
  orthogonal box = (-15 -15 -15) to (15 15 15)
  reading atoms ...
  2 atoms

# Define groups
group honokiol type 1 2 3  # Honokiol (C, H, O)
38 atoms in group honokiol
group O2molecule type 4  # O2- (assumed type 4)
2 atoms in group O2molecule

# Fix Honokiol (prevent movement)
fix freeze honokiol setforce 0.0 0.0 0.0

# Randomly move O2- as a whole unit
variable dx equal random(-5,5,12345)
variable dy equal random(-5,5,67890)
variable dz equal random(-5,5,54321)
displace_atoms O2molecule move 3.69953095912933 -4.89574074745178 -2.06432163715363 units box
Displacing atoms ...

# Define ReaxFF pair style and parameters
pair_style reax/c NULL
pair_coeff * * ffield.reax.rdx C H O O  # O2- included
Reading potential file ffield.reax.rdx with DATE: 2010-02-19

# Charge equilibration (QEq) required for ReaxFF
fix 1 all qeq/reaxff 1 0.0 10.0 1.0e-6 reaxff

# Minimize energy before simulation
minimize 1.0e-6 1.0e-8 5000 10000

CITE-CITE-CITE-CITE-CITE-CITE-CITE-CITE-CITE-CITE-CITE-CITE-CITE

Your simulation uses code contributions which should be cited:

- pair reaxff command: doi:10.1016/j.parco.2011.08.005

@Article{Aktulga12,
 author = {H. M. Aktulga and J. C. Fogarty and S. A. Pandit and A. Y. Grama},
 title = {Parallel Reactive Molecular Dynamics: {N}umerical Methods and Algorithmic Techniques},
 journal = {Parallel Computing},
 year =    2012,
 volume =  38,
 number =  {4--5},
 pages =   {245--259}
}

- fix qeq/reaxff command: doi:10.1016/j.parco.2011.08.005

@Article{Aktulga12,
 author = {H. M. Aktulga and J. C. Fogarty and S. A. Pandit and A. Y. Grama},
 title = {Parallel Reactive Molecular Dynamics: {N}umerical Methods and Algorithmic Techniques},
 journal = {Parallel Computing},
 year =    2012,
 volume =  38,
 pages =   {245--259}
}

CITE-CITE-CITE-CITE-CITE-CITE-CITE-CITE-CITE-CITE-CITE-CITE-CITE

Step          Temp          E_pair         E_mol          TotEng         Press
0   0             -4831.2953      0             -4831.2953      1543.1584
Loop time of 0.0189336 on 28 procs for 9 steps with 40 atoms

Minimization stats:
  Stopping criterion = energy tolerance
  Energy initial, next-to-last, final =
  Force two-norm initial, final = 423.56692 1.3113471
  Force max component initial, final = 299.55564 0.67596249
  Final line search alpha, max atom move = 0.0058224399 0.003935751
  Iterations, force evaluations = 9 18

# Save minimized structure
write_data minimized_structure.data  # Save the minimized structure for future analysis
System init for write_data ...

# Define NVT ensemble for simulation (only O2- moves)
fix nvt O2molecule nvt temp 300.0 300.0 100.0

# Define MSD computation
compute msdO O2molecule msd
fix msdout O2molecule ave/time 100 1 100 c_msdO[1] file msd_O2.dat
fix msdoutX O2molecule ave/time 100 1 100 c_msdO[2] file msd_O2_X.dat
fix msdoutY O2molecule ave/time 100 1 100 c_msdO[3] file msd_O2_Y.dat
fix msdoutZ O2molecule ave/time 100 1 100 c_msdO[4] file msd_O2_Z.dat

# Bond Order Analysis (Check if O2 is binding)
fix bonds all reax/c/bonds 1000 bonds.reax

# Output settings: Save trajectory and bond information
thermo 1000
thermo_style custom step temp pe ke etotal press
dump 1 all atom 1000 dump.lammpstrj  # Save trajectory

# Run molecular dynamics simulation (longer to find adsorption site)
timestep 0.25
run 2000000  # 200 ps 실행
Step          Temp          PotEng         KinEng         TotEng         Press
9   0             -4853.4056      0             -4853.4056      1884.3368
Averages over the last 1001 of 2002 rows, steps 1001000 to 2000009:
Temp PotEng KinEng TotEng Press
7.56445 -4860.2 0.879379 -4859.32 1891.6
Loop time of 1234.13 on 28 procs for 2000000 steps with 40 atoms

# Save final structure after MD
write_data final_structure.data  # Save final structure for post-processing
System init for write_data ...
