
#======================================================================
# CRYSTAL DATA
#----------------------------------------------------------------------
data_VESTA_phase_1

_chemical_name_common                  'Zn2'
_cell_length_a                         14.619482
_cell_length_b                         7.843081
_cell_length_c                         33.551449
_cell_angle_alpha                      120.000000
_cell_angle_beta                       90.000000
_cell_angle_gamma                      90.000000
_cell_volume                           3331.659400
_space_group_name_H-M_alt              'P 1'
_space_group_IT_number                 1

loop_
_space_group_symop_operation_xyz
   'x, y, z'

loop_
   _atom_site_label
   _atom_site_occupancy
   _atom_site_fract_x
   _atom_site_fract_y
   _atom_site_fract_z
   _atom_site_adp_type
   _atom_site_U_iso_or_equiv
   _atom_site_type_symbol
   Zn1        1.0     0.083333     0.222222     0.025974    Uiso  ? Zn
   Zn1        1.0     0.083333     0.555556     0.025974    Uiso  ? Zn
   Zn1        1.0     0.083333     0.888889     0.025974    Uiso  ? Zn
   Zn1        1.0     0.416667     0.222222     0.025974    Uiso  ? Zn
   Zn1        1.0     0.416667     0.555556     0.025974    Uiso  ? Zn
   Zn1        1.0     0.416667     0.888889     0.025974    Uiso  ? Zn
   Zn1        1.0     0.750000     0.222222     0.025974    Uiso  ? Zn
   Zn1        1.0     0.750000     0.555556     0.025974    Uiso  ? Zn
   Zn1        1.0     0.750000     0.888889     0.025974    Uiso  ? Zn
   Zn2        1.0     0.083333     0.222222     0.103895    Uiso  ? Zn
   Zn2        1.0     0.083333     0.555556     0.103895    Uiso  ? Zn
   Zn2        1.0     0.083333     0.888889     0.103895    Uiso  ? Zn
   Zn2        1.0     0.416667     0.222222     0.103895    Uiso  ? Zn
   Zn2        1.0     0.416667     0.555556     0.103895    Uiso  ? Zn
   Zn2        1.0     0.416667     0.888889     0.103895    Uiso  ? Zn
   Zn2        1.0     0.750000     0.222222     0.103895    Uiso  ? Zn
   Zn2        1.0     0.750000     0.555556     0.103895    Uiso  ? Zn
   Zn2        1.0     0.750000     0.888889     0.103895    Uiso  ? Zn
   Zn3        1.0     0.083333     0.222222     0.181815    Uiso  ? Zn
   Zn3        1.0     0.083333     0.555556     0.181815    Uiso  ? Zn
   Zn3        1.0     0.083333     0.888889     0.181815    Uiso  ? Zn
   Zn3        1.0     0.416667     0.222222     0.181815    Uiso  ? Zn
   Zn3        1.0     0.416667     0.555556     0.181815    Uiso  ? Zn
   Zn3        1.0     0.416667     0.888889     0.181815    Uiso  ? Zn
   Zn3        1.0     0.750000     0.222222     0.181815    Uiso  ? Zn
   Zn3        1.0     0.750000     0.555556     0.181815    Uiso  ? Zn
   Zn3        1.0     0.750000     0.888889     0.181815    Uiso  ? Zn
   Zn4        1.0     0.083333     0.222222     0.259736    Uiso  ? Zn
   Zn4        1.0     0.083333     0.555556     0.259736    Uiso  ? Zn
   Zn4        1.0     0.083333     0.888889     0.259736    Uiso  ? Zn
   Zn4        1.0     0.416667     0.222222     0.259736    Uiso  ? Zn
   Zn4        1.0     0.416667     0.555556     0.259736    Uiso  ? Zn
   Zn4        1.0     0.416667     0.888889     0.259736    Uiso  ? Zn
   Zn4        1.0     0.750000     0.222222     0.259736    Uiso  ? Zn
   Zn4        1.0     0.750000     0.555556     0.259736    Uiso  ? Zn
   Zn4        1.0     0.750000     0.888889     0.259736    Uiso  ? Zn
   Zn5        1.0     0.250000     0.111111     0.051947    Uiso  ? Zn
   Zn5        1.0     0.250000     0.444444     0.051947    Uiso  ? Zn
   Zn5        1.0     0.250000     0.777778     0.051947    Uiso  ? Zn
   Zn5        1.0     0.583333     0.111111     0.051947    Uiso  ? Zn
   Zn5        1.0     0.583333     0.444444     0.051947    Uiso  ? Zn
   Zn5        1.0     0.583333     0.777778     0.051947    Uiso  ? Zn
   Zn5        1.0     0.916667     0.111111     0.051947    Uiso  ? Zn
   Zn5        1.0     0.916667     0.444444     0.051947    Uiso  ? Zn
   Zn5        1.0     0.916667     0.777778     0.051947    Uiso  ? Zn
   Zn6        1.0     0.250000     0.111111     0.129868    Uiso  ? Zn
   Zn6        1.0     0.250000     0.444444     0.129868    Uiso  ? Zn
   Zn6        1.0     0.250000     0.777778     0.129868    Uiso  ? Zn
   Zn6        1.0     0.583333     0.111111     0.129868    Uiso  ? Zn
   Zn6        1.0     0.583333     0.444444     0.129868    Uiso  ? Zn
   Zn6        1.0     0.583333     0.777778     0.129868    Uiso  ? Zn
   Zn6        1.0     0.916667     0.111111     0.129868    Uiso  ? Zn
   Zn6        1.0     0.916667     0.444444     0.129868    Uiso  ? Zn
   Zn6        1.0     0.916667     0.777778     0.129868    Uiso  ? Zn
   Zn7        1.0     0.250000     0.111111     0.207789    Uiso  ? Zn
   Zn7        1.0     0.250000     0.444444     0.207789    Uiso  ? Zn
   Zn7        1.0     0.250000     0.777778     0.207789    Uiso  ? Zn
   Zn7        1.0     0.583333     0.111111     0.207789    Uiso  ? Zn
   Zn7        1.0     0.583333     0.444444     0.207789    Uiso  ? Zn
   Zn7        1.0     0.583333     0.777778     0.207789    Uiso  ? Zn
   Zn7        1.0     0.916667     0.111111     0.207789    Uiso  ? Zn
   Zn7        1.0     0.916667     0.444444     0.207789    Uiso  ? Zn
   Zn7        1.0     0.916667     0.777778     0.207789    Uiso  ? Zn
   Zn8        1.0     0.250000     0.111111     0.285710    Uiso  ? Zn
   Zn8        1.0     0.250000     0.444444     0.285710    Uiso  ? Zn
   Zn8        1.0     0.250000     0.777778     0.285710    Uiso  ? Zn
   Zn8        1.0     0.583333     0.111111     0.285710    Uiso  ? Zn
   Zn8        1.0     0.583333     0.444444     0.285710    Uiso  ? Zn
   Zn8        1.0     0.583333     0.777778     0.285710    Uiso  ? Zn
   Zn8        1.0     0.916667     0.111111     0.285710    Uiso  ? Zn
   Zn8        1.0     0.916667     0.444444     0.285710    Uiso  ? Zn
   Zn8        1.0     0.916667     0.777778     0.285710    Uiso  ? Zn
