LAMMPS (2 Aug 2023 - Update 4)
variable i loop 20
label loop_start
clear  # 초기화

# Create and move to a new directory for this run
shell mkdir run_1
shell cd run_1

# LAMMPS Input Script for Finding O2- Adsorption Site for DFT
units real
atom_style charge  # ReaxFF requires charge
boundary p p p  # Periodic boundary conditions

# Copy input files to the new directory
shell cp ../chelpg_updated_c60malonicester.data .
shell cp ../chelpg_updated_O2.data .
shell cp ../ffield.reax.rdx .

# Read input data files
read_data chelpg_updated_c60malonicester.data
Reading data file ...
  orthogonal box = (-20 -20 -20) to (20 20 20)
  reading atoms ...
  81 atoms
read_data chelpg_updated_O2.data add append
Reading data file ...
  orthogonal box = (-20 -20 -20) to (20 20 20)
  reading atoms ...
  2 atoms

# Define groups
group c60 type 1 2 3  # c60 (C, H, O)
81 atoms in group c60
group O2molecule type 4  # O2- (assumed type 4)
2 atoms in group O2molecule

# Fix c60 to prevent unwanted movement
fix freeze c60 setforce 0.0 0.0 0.0

# Define ReaxFF pair style and parameters
pair_style reax/c NULL
pair_coeff * * ffield.reax.rdx C H O O  # O2- included
Reading potential file ffield.reax.rdx with DATE: 2010-02-19

# Charge equilibration (QEq) required for ReaxFF
fix 1 all qeq/reaxff 1 0.0 10.0 1.0e-6 reaxff

# Define MSD computation
compute msdO O2molecule msd

# Generate different random positions for O2-
variable seed1 equal 12345+v_i*1000
variable seed2 equal 67890+v_i*1000
variable seed3 equal 54321+v_i*1000
variable dx equal random(-8,8,v_seed1)
variable dy equal random(-8,8,v_seed2)
variable dz equal random(-8,8,v_seed3)
displace_atoms O2molecule move 1.48685932159424 -6.76713562011719 2.97348117828369 units box
Displacing atoms ...

# Initial energy minimization to relax high-force configurations
minimize 1.0e-6 1.0e-8 5000 10000

CITE-CITE-CITE-CITE-CITE-CITE-CITE-CITE-CITE-CITE-CITE-CITE-CITE

Your simulation uses code contributions which should be cited:

- pair reaxff command: doi:10.1016/j.parco.2011.08.005

@Article{Aktulga12,
 author = {H. M. Aktulga and J. C. Fogarty and S. A. Pandit and A. Y. Grama},
 title = {Parallel Reactive Molecular Dynamics: {N}umerical Methods and Algorithmic Techniques},
 journal = {Parallel Computing},
 year =    2012,
 volume =  38,
 number =  {4--5},
 pages =   {245--259}
}

- fix qeq/reaxff command: doi:10.1016/j.parco.2011.08.005

@Article{Aktulga12,
 author = {H. M. Aktulga and J. C. Fogarty and S. A. Pandit and A. Y. Grama},
 title = {Parallel Reactive Molecular Dynamics: {N}umerical Methods and Algorithmic Techniques},
 journal = {Parallel Computing},
 year =    2012,
 volume =  38,
 pages =   {245--259}
}

CITE-CITE-CITE-CITE-CITE-CITE-CITE-CITE-CITE-CITE-CITE-CITE-CITE

Step          Temp          E_pair         E_mol          TotEng         Press
0   0             -13575.93       0             -13575.93       9733.7072
Loop time of 0.0099099 on 1 procs for 4 steps with 83 atoms

Minimization stats:
  Stopping criterion = energy tolerance
  Energy initial, next-to-last, final =
  Force two-norm initial, final = 425.2162 4.200122
  Force max component initial, final = 300.85286 3.0852863
  Final line search alpha, max atom move = 0.0095097261 0.029340228
  Iterations, force evaluations = 4 7

write_data minimized_structure_1.data
System init for write_data ...

# Run NVT MD simulation for O2- to find adsorption site
fix nvt O2molecule nvt temp 300.0 300.0 100.0

fix msdout O2molecule ave/time 100 1 100 c_msdO[1] file msd_O2_1.dat
fix msdoutX O2molecule ave/time 100 1 100 c_msdO[2] file msd_O2_X_1.dat
fix msdoutY O2molecule ave/time 100 1 100 c_msdO[3] file msd_O2_Y_1.dat
fix msdoutZ O2molecule ave/time 100 1 100 c_msdO[4] file msd_O2_Z_1.dat

# Save total energy to a file
variable etotal equal pe+ke

# Bond Order Analysis (Check if O2- is binding)
fix bonds all reax/c/bonds 1000 bonds_1.reax

# Output settings: Save trajectory and bond information
thermo 100
thermo_style custom step temp pe ke etotal press
dump 1 all atom 100 dump_1.lammpstrj

timestep 0.25
run 200000  # 1000 ps
Step          Temp          PotEng         KinEng         TotEng         Press
4   0             -13597.441      0             -13597.441      9878.7777
Averages over the last 1001 of 2002 rows, steps 100100 to 200004:
Temp PotEng KinEng TotEng Press
3.86069 -13602.3 0.943654 -13601.4 9879.82
Loop time of 216.506 on 1 procs for 200000 steps with 83 atoms

# Final energy minimization for most stable adsorption structure
unfix nvt
minimize 1.0e-6 1.0e-8 5000 10000
Step          Temp          PotEng         KinEng         TotEng         Press
200004   1.8317857     -13602.958      0.44773682    -13602.51       9877.9944
Loop time of 0.0086214 on 1 procs for 1 steps with 83 atoms

Minimization stats:
  Stopping criterion = energy tolerance
  Energy initial, next-to-last, final =
  Force two-norm initial, final = 1.3841654 1.5047213
  Force max component initial, final = 1.0495016 1.1809842
  Final line search alpha, max atom move = 0.011910415 0.014066012
  Iterations, force evaluations = 1 6

write_data final_structure_1.data
System init for write_data ...

# Dump final structure in XYZ format for DFT input
write_dump all xyz final_structure_1.xyz

# Move back to parent directory
shell cd ..

# Increment loop
next i
jump SELF loop_start
clear  # 초기화

# Create and move to a new directory for this run
shell mkdir run_2
shell cd run_2

# LAMMPS Input Script for Finding O2- Adsorption Site for DFT
units real
atom_style charge  # ReaxFF requires charge
boundary p p p  # Periodic boundary conditions

# Copy input files to the new directory
shell cp ../chelpg_updated_c60malonicester.data .
shell cp ../chelpg_updated_O2.data .
shell cp ../ffield.reax.rdx .

# Read input data files
read_data chelpg_updated_c60malonicester.data
Reading data file ...
  orthogonal box = (-20 -20 -20) to (20 20 20)
  reading atoms ...
  81 atoms
read_data chelpg_updated_O2.data add append
Reading data file ...
  orthogonal box = (-20 -20 -20) to (20 20 20)
  reading atoms ...
  2 atoms

# Define groups
group c60 type 1 2 3  # c60 (C, H, O)
81 atoms in group c60
group O2molecule type 4  # O2- (assumed type 4)
2 atoms in group O2molecule

# Fix c60 to prevent unwanted movement
fix freeze c60 setforce 0.0 0.0 0.0

# Define ReaxFF pair style and parameters
pair_style reax/c NULL
pair_coeff * * ffield.reax.rdx C H O O  # O2- included
Reading potential file ffield.reax.rdx with DATE: 2010-02-19

# Charge equilibration (QEq) required for ReaxFF
fix 1 all qeq/reaxff 1 0.0 10.0 1.0e-6 reaxff

# Define MSD computation
compute msdO O2molecule msd

# Generate different random positions for O2-
variable seed1 equal 12345+v_i*1000
variable seed2 equal 67890+v_i*1000
variable seed3 equal 54321+v_i*1000
variable dx equal random(-8,8,v_seed1)
variable dy equal random(-8,8,v_seed2)
variable dz equal random(-8,8,v_seed3)
displace_atoms O2molecule move -2.77865028381348 -6.89767074584961 -4.40802574157715 units box
Displacing atoms ...

# Initial energy minimization to relax high-force configurations
minimize 1.0e-6 1.0e-8 5000 10000
Step          Temp          E_pair         E_mol          TotEng         Press
0   0             -13575.069      0             -13575.069      9734.4674
Loop time of 0.0118493 on 1 procs for 6 steps with 83 atoms

Minimization stats:
  Stopping criterion = energy tolerance
  Energy initial, next-to-last, final =
  Force two-norm initial, final = 425.34374 21.037388
  Force max component initial, final = 300.85824 14.934098
  Final line search alpha, max atom move = 2.9629278e-05 0.00044248654
  Iterations, force evaluations = 6 9

write_data minimized_structure_2.data
System init for write_data ...

# Run NVT MD simulation for O2- to find adsorption site
fix nvt O2molecule nvt temp 300.0 300.0 100.0

fix msdout O2molecule ave/time 100 1 100 c_msdO[1] file msd_O2_2.dat
fix msdoutX O2molecule ave/time 100 1 100 c_msdO[2] file msd_O2_X_2.dat
fix msdoutY O2molecule ave/time 100 1 100 c_msdO[3] file msd_O2_Y_2.dat
fix msdoutZ O2molecule ave/time 100 1 100 c_msdO[4] file msd_O2_Z_2.dat

# Save total energy to a file
variable etotal equal pe+ke

# Bond Order Analysis (Check if O2- is binding)
fix bonds all reax/c/bonds 1000 bonds_2.reax

# Output settings: Save trajectory and bond information
thermo 100
thermo_style custom step temp pe ke etotal press
dump 2 all atom 100 dump_2.lammpstrj

timestep 0.25
run 200000  # 1000 ps
Step          Temp          PotEng         KinEng         TotEng         Press
6   0             -13596.677      0             -13596.677      9871.5597
Averages over the last 1001 of 2002 rows, steps 100100 to 200006:
Temp PotEng KinEng TotEng Press
3.78607 -13601.3 0.925415 -13600.4 9879.82
Loop time of 215.388 on 1 procs for 200000 steps with 83 atoms

# Final energy minimization for most stable adsorption structure
unfix nvt
minimize 1.0e-6 1.0e-8 5000 10000
Step          Temp          PotEng         KinEng         TotEng         Press
200006   6.3916675     -13602.532      1.5622924     -13600.97       9878.1712
Loop time of 0.0039331 on 1 procs for 1 steps with 83 atoms

Minimization stats:
  Stopping criterion = energy tolerance
  Energy initial, next-to-last, final =
  Force two-norm initial, final = 1.7102343 6.5338889
  Force max component initial, final = 1.3300063 3.7676064
  Final line search alpha, max atom move = 0.075187615 0.28327734
  Iterations, force evaluations = 1 2

write_data final_structure_2.data
System init for write_data ...

# Dump final structure in XYZ format for DFT input
write_dump all xyz final_structure_2.xyz

# Move back to parent directory
shell cd ..

# Increment loop
next i
jump SELF loop_start
clear  # 초기화

# Create and move to a new directory for this run
shell mkdir run_3
shell cd run_3

# LAMMPS Input Script for Finding O2- Adsorption Site for DFT
units real
atom_style charge  # ReaxFF requires charge
boundary p p p  # Periodic boundary conditions

# Copy input files to the new directory
shell cp ../chelpg_updated_c60malonicester.data .
shell cp ../chelpg_updated_O2.data .
shell cp ../ffield.reax.rdx .

# Read input data files
read_data chelpg_updated_c60malonicester.data
Reading data file ...
  orthogonal box = (-20 -20 -20) to (20 20 20)
  reading atoms ...
  81 atoms
read_data chelpg_updated_O2.data add append
Reading data file ...
  orthogonal box = (-20 -20 -20) to (20 20 20)
  reading atoms ...
  2 atoms

# Define groups
group c60 type 1 2 3  # c60 (C, H, O)
81 atoms in group c60
group O2molecule type 4  # O2- (assumed type 4)
2 atoms in group O2molecule

# Fix c60 to prevent unwanted movement
fix freeze c60 setforce 0.0 0.0 0.0

# Define ReaxFF pair style and parameters
pair_style reax/c NULL
pair_coeff * * ffield.reax.rdx C H O O  # O2- included
Reading potential file ffield.reax.rdx with DATE: 2010-02-19

# Charge equilibration (QEq) required for ReaxFF
fix 1 all qeq/reaxff 1 0.0 10.0 1.0e-6 reaxff

# Define MSD computation
compute msdO O2molecule msd

# Generate different random positions for O2-
variable seed1 equal 12345+v_i*1000
variable seed2 equal 67890+v_i*1000
variable seed3 equal 54321+v_i*1000
variable dx equal random(-8,8,v_seed1)
variable dy equal random(-8,8,v_seed2)
variable dz equal random(-8,8,v_seed3)
displace_atoms O2molecule move 1.1671724319458 0.218891143798828 -6.18811988830566 units box
Displacing atoms ...

# Initial energy minimization to relax high-force configurations
minimize 1.0e-6 1.0e-8 5000 10000
Step          Temp          E_pair         E_mol          TotEng         Press
0   0             -13576.128      0             -13576.128      9736.9838
Loop time of 0.012954 on 1 procs for 2 steps with 83 atoms

Minimization stats:
  Stopping criterion = energy tolerance
  Energy initial, next-to-last, final =
  Force two-norm initial, final = 425.42928 14.121372
  Force max component initial, final = 301.105 10.121427
  Final line search alpha, max atom move = 0.002474269 0.025043133
  Iterations, force evaluations = 2 9

write_data minimized_structure_3.data
System init for write_data ...

# Run NVT MD simulation for O2- to find adsorption site
fix nvt O2molecule nvt temp 300.0 300.0 100.0

fix msdout O2molecule ave/time 100 1 100 c_msdO[1] file msd_O2_3.dat
fix msdoutX O2molecule ave/time 100 1 100 c_msdO[2] file msd_O2_X_3.dat
fix msdoutY O2molecule ave/time 100 1 100 c_msdO[3] file msd_O2_Y_3.dat
fix msdoutZ O2molecule ave/time 100 1 100 c_msdO[4] file msd_O2_Z_3.dat

# Save total energy to a file
variable etotal equal pe+ke

# Bond Order Analysis (Check if O2- is binding)
fix bonds all reax/c/bonds 1000 bonds_3.reax

# Output settings: Save trajectory and bond information
thermo 100
thermo_style custom step temp pe ke etotal press
dump 3 all atom 100 dump_3.lammpstrj

timestep 0.25
run 200000  # 1000 ps
Step          Temp          PotEng         KinEng         TotEng         Press
2   0             -13597.491      0             -13597.491      9884.7762
Averages over the last 1001 of 2002 rows, steps 100100 to 200002:
Temp PotEng KinEng TotEng Press
3.78465 -13602.6 0.925068 -13601.7 9879.81
Loop time of 217.706 on 1 procs for 200000 steps with 83 atoms

# Final energy minimization for most stable adsorption structure
unfix nvt
minimize 1.0e-6 1.0e-8 5000 10000
Step          Temp          PotEng         KinEng         TotEng         Press
200002   3.5392952     -13601.688      0.86509728    -13600.822      9881.3463
Loop time of 0.0039007 on 1 procs for 1 steps with 83 atoms

Minimization stats:
  Stopping criterion = energy tolerance
  Energy initial, next-to-last, final =
  Force two-norm initial, final = 1.6816444 3.8365493
  Force max component initial, final = 0.97109782 2.8052112
  Final line search alpha, max atom move = 0.10297624 0.2888701
  Iterations, force evaluations = 1 2

write_data final_structure_3.data
System init for write_data ...

# Dump final structure in XYZ format for DFT input
write_dump all xyz final_structure_3.xyz

# Move back to parent directory
shell cd ..

# Increment loop
next i
jump SELF loop_start
clear  # 초기화

# Create and move to a new directory for this run
shell mkdir run_4
shell cd run_4

# LAMMPS Input Script for Finding O2- Adsorption Site for DFT
units real
atom_style charge  # ReaxFF requires charge
boundary p p p  # Periodic boundary conditions

# Copy input files to the new directory
shell cp ../chelpg_updated_c60malonicester.data .
shell cp ../chelpg_updated_O2.data .
shell cp ../ffield.reax.rdx .

# Read input data files
read_data chelpg_updated_c60malonicester.data
Reading data file ...
  orthogonal box = (-20 -20 -20) to (20 20 20)
  reading atoms ...
  81 atoms
read_data chelpg_updated_O2.data add append
Reading data file ...
  orthogonal box = (-20 -20 -20) to (20 20 20)
  reading atoms ...
  2 atoms

# Define groups
group c60 type 1 2 3  # c60 (C, H, O)
81 atoms in group c60
group O2molecule type 4  # O2- (assumed type 4)
2 atoms in group O2molecule

# Fix c60 to prevent unwanted movement
fix freeze c60 setforce 0.0 0.0 0.0

# Define ReaxFF pair style and parameters
pair_style reax/c NULL
pair_coeff * * ffield.reax.rdx C H O O  # O2- included
Reading potential file ffield.reax.rdx with DATE: 2010-02-19

# Charge equilibration (QEq) required for ReaxFF
fix 1 all qeq/reaxff 1 0.0 10.0 1.0e-6 reaxff

# Define MSD computation
compute msdO O2molecule msd

# Generate different random positions for O2-
variable seed1 equal 12345+v_i*1000
variable seed2 equal 67890+v_i*1000
variable seed3 equal 54321+v_i*1000
variable dx equal random(-8,8,v_seed1)
variable dy equal random(-8,8,v_seed2)
variable dz equal random(-8,8,v_seed3)
displace_atoms O2molecule move 2.42419528961182 -3.73041915893555 1.59668827056885 units box
Displacing atoms ...

# Initial energy minimization to relax high-force configurations
minimize 1.0e-6 1.0e-8 5000 10000
Step          Temp          E_pair         E_mol          TotEng         Press
0   0             -13118.796      0             -13118.796      10363.998
Loop time of 0.0616389 on 1 procs for 19 steps with 83 atoms

Minimization stats:
  Stopping criterion = energy tolerance
  Energy initial, next-to-last, final =
  Force two-norm initial, final = 578.76005 64.776216
  Force max component initial, final = 518.77092 43.996767
  Final line search alpha, max atom move = 0.00027939777 0.012292599
  Iterations, force evaluations = 19 47

write_data minimized_structure_4.data
System init for write_data ...

# Run NVT MD simulation for O2- to find adsorption site
fix nvt O2molecule nvt temp 300.0 300.0 100.0

fix msdout O2molecule ave/time 100 1 100 c_msdO[1] file msd_O2_4.dat
fix msdoutX O2molecule ave/time 100 1 100 c_msdO[2] file msd_O2_X_4.dat
fix msdoutY O2molecule ave/time 100 1 100 c_msdO[3] file msd_O2_Y_4.dat
fix msdoutZ O2molecule ave/time 100 1 100 c_msdO[4] file msd_O2_Z_4.dat

# Save total energy to a file
variable etotal equal pe+ke

# Bond Order Analysis (Check if O2- is binding)
fix bonds all reax/c/bonds 1000 bonds_4.reax

# Output settings: Save trajectory and bond information
thermo 100
thermo_style custom step temp pe ke etotal press
dump 4 all atom 100 dump_4.lammpstrj

timestep 0.25
run 200000  # 1000 ps
Step          Temp          PotEng         KinEng         TotEng         Press
19   0             -13600.941      0             -13600.941      10065.271
Averages over the last 1001 of 2002 rows, steps 100100 to 200019:
Temp PotEng KinEng TotEng Press
3.64064 -13603.3 0.889869 -13602.4 10028.8
Loop time of 220.868 on 1 procs for 200000 steps with 83 atoms

# Final energy minimization for most stable adsorption structure
unfix nvt
minimize 1.0e-6 1.0e-8 5000 10000
Step          Temp          PotEng         KinEng         TotEng         Press
200019   6.0432005     -13603.74       1.4771179     -13602.263      10056.273
Loop time of 0.0230485 on 1 procs for 2 steps with 83 atoms

Minimization stats:
  Stopping criterion = energy tolerance
  Energy initial, next-to-last, final =
  Force two-norm initial, final = 44.538269 16.550381
  Force max component initial, final = 24.340798 13.440325
  Final line search alpha, max atom move = 0.00042049797 0.0056516295
  Iterations, force evaluations = 2 16

write_data final_structure_4.data
System init for write_data ...

# Dump final structure in XYZ format for DFT input
write_dump all xyz final_structure_4.xyz

# Move back to parent directory
shell cd ..

# Increment loop
next i
jump SELF loop_start
clear  # 초기화

# Create and move to a new directory for this run
shell mkdir run_5
shell cd run_5

# LAMMPS Input Script for Finding O2- Adsorption Site for DFT
units real
atom_style charge  # ReaxFF requires charge
boundary p p p  # Periodic boundary conditions

# Copy input files to the new directory
shell cp ../chelpg_updated_c60malonicester.data .
shell cp ../chelpg_updated_O2.data .
shell cp ../ffield.reax.rdx .

# Read input data files
read_data chelpg_updated_c60malonicester.data
Reading data file ...
  orthogonal box = (-20 -20 -20) to (20 20 20)
  reading atoms ...
  81 atoms
read_data chelpg_updated_O2.data add append
Reading data file ...
  orthogonal box = (-20 -20 -20) to (20 20 20)
  reading atoms ...
  2 atoms

# Define groups
group c60 type 1 2 3  # c60 (C, H, O)
81 atoms in group c60
group O2molecule type 4  # O2- (assumed type 4)
2 atoms in group O2molecule

# Fix c60 to prevent unwanted movement
fix freeze c60 setforce 0.0 0.0 0.0

# Define ReaxFF pair style and parameters
pair_style reax/c NULL
pair_coeff * * ffield.reax.rdx C H O O  # O2- included
Reading potential file ffield.reax.rdx with DATE: 2010-02-19

# Charge equilibration (QEq) required for ReaxFF
fix 1 all qeq/reaxff 1 0.0 10.0 1.0e-6 reaxff

# Define MSD computation
compute msdO O2molecule msd

# Generate different random positions for O2-
variable seed1 equal 12345+v_i*1000
variable seed2 equal 67890+v_i*1000
variable seed3 equal 54321+v_i*1000
variable dx equal random(-8,8,v_seed1)
variable dy equal random(-8,8,v_seed2)
variable dz equal random(-8,8,v_seed3)
displace_atoms O2molecule move 4.80714893341064 0.484404563903809 -6.20421028137207 units box
Displacing atoms ...

# Initial energy minimization to relax high-force configurations
minimize 1.0e-6 1.0e-8 5000 10000
Step          Temp          E_pair         E_mol          TotEng         Press
0   0             -13574.894      0             -13574.894      9734.7255
Loop time of 0.0107401 on 1 procs for 5 steps with 83 atoms

Minimization stats:
  Stopping criterion = energy tolerance
  Energy initial, next-to-last, final =
  Force two-norm initial, final = 425.29372 2.3280949
  Force max component initial, final = 300.88823 1.8093801
  Final line search alpha, max atom move = 0.017338204 0.031371401
  Iterations, force evaluations = 5 8

write_data minimized_structure_5.data
System init for write_data ...

# Run NVT MD simulation for O2- to find adsorption site
fix nvt O2molecule nvt temp 300.0 300.0 100.0

fix msdout O2molecule ave/time 100 1 100 c_msdO[1] file msd_O2_5.dat
fix msdoutX O2molecule ave/time 100 1 100 c_msdO[2] file msd_O2_X_5.dat
fix msdoutY O2molecule ave/time 100 1 100 c_msdO[3] file msd_O2_Y_5.dat
fix msdoutZ O2molecule ave/time 100 1 100 c_msdO[4] file msd_O2_Z_5.dat

# Save total energy to a file
variable etotal equal pe+ke

# Bond Order Analysis (Check if O2- is binding)
fix bonds all reax/c/bonds 1000 bonds_5.reax

# Output settings: Save trajectory and bond information
thermo 100
thermo_style custom step temp pe ke etotal press
dump 5 all atom 100 dump_5.lammpstrj

timestep 0.25
run 200000  # 1000 ps
Step          Temp          PotEng         KinEng         TotEng         Press
5   0             -13596.383      0             -13596.383      9877.6806
Averages over the last 1001 of 2002 rows, steps 100100 to 200005:
Temp PotEng KinEng TotEng Press
3.76319 -13602.7 0.919822 -13601.8 9879.96
Loop time of 237.789 on 1 procs for 200000 steps with 83 atoms

# Final energy minimization for most stable adsorption structure
unfix nvt
minimize 1.0e-6 1.0e-8 5000 10000
Step          Temp          PotEng         KinEng         TotEng         Press
200005   2.2090543     -13602.95       0.53995123    -13602.41       9877.6425
Loop time of 0.0183166 on 1 procs for 8 steps with 83 atoms

Minimization stats:
  Stopping criterion = energy tolerance
  Energy initial, next-to-last, final =
  Force two-norm initial, final = 1.5371296 0.77392507
  Force max component initial, final = 1.0832583 0.48667843
  Final line search alpha, max atom move = 0.067128608 0.032670045
  Iterations, force evaluations = 8 14

write_data final_structure_5.data
System init for write_data ...

# Dump final structure in XYZ format for DFT input
write_dump all xyz final_structure_5.xyz

# Move back to parent directory
shell cd ..

# Increment loop
next i
jump SELF loop_start
clear  # 초기화

# Create and move to a new directory for this run
shell mkdir run_6
shell cd run_6

# LAMMPS Input Script for Finding O2- Adsorption Site for DFT
units real
atom_style charge  # ReaxFF requires charge
boundary p p p  # Periodic boundary conditions

# Copy input files to the new directory
shell cp ../chelpg_updated_c60malonicester.data .
shell cp ../chelpg_updated_O2.data .
shell cp ../ffield.reax.rdx .

# Read input data files
read_data chelpg_updated_c60malonicester.data
Reading data file ...
  orthogonal box = (-20 -20 -20) to (20 20 20)
  reading atoms ...
  81 atoms
read_data chelpg_updated_O2.data add append
Reading data file ...
  orthogonal box = (-20 -20 -20) to (20 20 20)
  reading atoms ...
  2 atoms

# Define groups
group c60 type 1 2 3  # c60 (C, H, O)
81 atoms in group c60
group O2molecule type 4  # O2- (assumed type 4)
2 atoms in group O2molecule

# Fix c60 to prevent unwanted movement
fix freeze c60 setforce 0.0 0.0 0.0

# Define ReaxFF pair style and parameters
pair_style reax/c NULL
pair_coeff * * ffield.reax.rdx C H O O  # O2- included
Reading potential file ffield.reax.rdx with DATE: 2010-02-19

# Charge equilibration (QEq) required for ReaxFF
fix 1 all qeq/reaxff 1 0.0 10.0 1.0e-6 reaxff

# Define MSD computation
compute msdO O2molecule msd

# Generate different random positions for O2-
variable seed1 equal 12345+v_i*1000
variable seed2 equal 67890+v_i*1000
variable seed3 equal 54321+v_i*1000
variable dx equal random(-8,8,v_seed1)
variable dy equal random(-8,8,v_seed2)
variable dz equal random(-8,8,v_seed3)
displace_atoms O2molecule move -5.3835563659668 6.39343643188477 -0.382743835449219 units box
Displacing atoms ...

# Initial energy minimization to relax high-force configurations
minimize 1.0e-6 1.0e-8 5000 10000
Step          Temp          E_pair         E_mol          TotEng         Press
0   0             -13571.565      0             -13571.565      9760.5064
Loop time of 0.0199295 on 1 procs for 9 steps with 83 atoms

Minimization stats:
  Stopping criterion = energy tolerance
  Energy initial, next-to-last, final =
  Force two-norm initial, final = 424.45035 5.4575249
  Force max component initial, final = 306.05077 5.0757776
  Final line search alpha, max atom move = 0.014409409 0.073138954
  Iterations, force evaluations = 9 15

write_data minimized_structure_6.data
System init for write_data ...

# Run NVT MD simulation for O2- to find adsorption site
fix nvt O2molecule nvt temp 300.0 300.0 100.0

fix msdout O2molecule ave/time 100 1 100 c_msdO[1] file msd_O2_6.dat
fix msdoutX O2molecule ave/time 100 1 100 c_msdO[2] file msd_O2_X_6.dat
fix msdoutY O2molecule ave/time 100 1 100 c_msdO[3] file msd_O2_Y_6.dat
fix msdoutZ O2molecule ave/time 100 1 100 c_msdO[4] file msd_O2_Z_6.dat

# Save total energy to a file
variable etotal equal pe+ke

# Bond Order Analysis (Check if O2- is binding)
fix bonds all reax/c/bonds 1000 bonds_6.reax

# Output settings: Save trajectory and bond information
thermo 100
thermo_style custom step temp pe ke etotal press
dump 6 all atom 100 dump_6.lammpstrj

timestep 0.25
run 200000  # 1000 ps
Step          Temp          PotEng         KinEng         TotEng         Press
9   0             -13596.222      0             -13596.222      9884.0018
Averages over the last 1001 of 2002 rows, steps 100100 to 200009:
Temp PotEng KinEng TotEng Press
3.74489 -13602.2 0.915349 -13601.2 9880.23
Loop time of 242.433 on 1 procs for 200000 steps with 83 atoms

# Final energy minimization for most stable adsorption structure
unfix nvt
minimize 1.0e-6 1.0e-8 5000 10000
Step          Temp          PotEng         KinEng         TotEng         Press
200009   1.4516381     -13602.482      0.35481871    -13602.127      9882.1362
Loop time of 0.0074248 on 1 procs for 1 steps with 83 atoms

Minimization stats:
  Stopping criterion = energy tolerance
  Energy initial, next-to-last, final =
  Force two-norm initial, final = 1.5327232 6.7511592
  Force max component initial, final = 1.3157817 4.1569106
  Final line search alpha, max atom move = 0.019000112 0.07898177
  Iterations, force evaluations = 1 5

write_data final_structure_6.data
System init for write_data ...

# Dump final structure in XYZ format for DFT input
write_dump all xyz final_structure_6.xyz

# Move back to parent directory
shell cd ..

# Increment loop
next i
jump SELF loop_start
clear  # 초기화

# Create and move to a new directory for this run
shell mkdir run_7
shell cd run_7

# LAMMPS Input Script for Finding O2- Adsorption Site for DFT
units real
atom_style charge  # ReaxFF requires charge
boundary p p p  # Periodic boundary conditions

# Copy input files to the new directory
shell cp ../chelpg_updated_c60malonicester.data .
shell cp ../chelpg_updated_O2.data .
shell cp ../ffield.reax.rdx .

# Read input data files
read_data chelpg_updated_c60malonicester.data
Reading data file ...
  orthogonal box = (-20 -20 -20) to (20 20 20)
  reading atoms ...
  81 atoms
read_data chelpg_updated_O2.data add append
Reading data file ...
  orthogonal box = (-20 -20 -20) to (20 20 20)
  reading atoms ...
  2 atoms

# Define groups
group c60 type 1 2 3  # c60 (C, H, O)
81 atoms in group c60
group O2molecule type 4  # O2- (assumed type 4)
2 atoms in group O2molecule

# Fix c60 to prevent unwanted movement
fix freeze c60 setforce 0.0 0.0 0.0

# Define ReaxFF pair style and parameters
pair_style reax/c NULL
pair_coeff * * ffield.reax.rdx C H O O  # O2- included
Reading potential file ffield.reax.rdx with DATE: 2010-02-19

# Charge equilibration (QEq) required for ReaxFF
fix 1 all qeq/reaxff 1 0.0 10.0 1.0e-6 reaxff

# Define MSD computation
compute msdO O2molecule msd

# Generate different random positions for O2-
variable seed1 equal 12345+v_i*1000
variable seed2 equal 67890+v_i*1000
variable seed3 equal 54321+v_i*1000
variable dx equal random(-8,8,v_seed1)
variable dy equal random(-8,8,v_seed2)
variable dz equal random(-8,8,v_seed3)
displace_atoms O2molecule move 4.82213687896729 2.11742687225342 -6.74578475952148 units box
Displacing atoms ...

# Initial energy minimization to relax high-force configurations
minimize 1.0e-6 1.0e-8 5000 10000
Step          Temp          E_pair         E_mol          TotEng         Press
0   0             -13574.559      0             -13574.559      9735.4583
Loop time of 0.0097372 on 1 procs for 3 steps with 83 atoms

Minimization stats:
  Stopping criterion = energy tolerance
  Energy initial, next-to-last, final =
  Force two-norm initial, final = 425.42108 0.70048484
  Force max component initial, final = 300.84894 0.5172413
  Final line search alpha, max atom move = 1 0.5172413
  Iterations, force evaluations = 3 6

write_data minimized_structure_7.data
System init for write_data ...

# Run NVT MD simulation for O2- to find adsorption site
fix nvt O2molecule nvt temp 300.0 300.0 100.0

fix msdout O2molecule ave/time 100 1 100 c_msdO[1] file msd_O2_7.dat
fix msdoutX O2molecule ave/time 100 1 100 c_msdO[2] file msd_O2_X_7.dat
fix msdoutY O2molecule ave/time 100 1 100 c_msdO[3] file msd_O2_Y_7.dat
fix msdoutZ O2molecule ave/time 100 1 100 c_msdO[4] file msd_O2_Z_7.dat

# Save total energy to a file
variable etotal equal pe+ke

# Bond Order Analysis (Check if O2- is binding)
fix bonds all reax/c/bonds 1000 bonds_7.reax

# Output settings: Save trajectory and bond information
thermo 100
thermo_style custom step temp pe ke etotal press
dump 7 all atom 100 dump_7.lammpstrj

timestep 0.25
run 200000  # 1000 ps
Step          Temp          PotEng         KinEng         TotEng         Press
3   0             -13595.944      0             -13595.944      9879.1228
Averages over the last 1001 of 2002 rows, steps 100100 to 200003:
Temp PotEng KinEng TotEng Press
3.79105 -13598.6 0.926634 -13597.7 9879.92
Loop time of 211.393 on 1 procs for 200000 steps with 83 atoms

# Final energy minimization for most stable adsorption structure
unfix nvt
minimize 1.0e-6 1.0e-8 5000 10000
Step          Temp          PotEng         KinEng         TotEng         Press
200003   9.0310252     -13601.445      2.2074212     -13599.238      9876.4457
Loop time of 0.0039118 on 1 procs for 1 steps with 83 atoms

Minimization stats:
  Stopping criterion = energy tolerance
  Energy initial, next-to-last, final =
  Force two-norm initial, final = 4.3117783 1.9099387
  Force max component initial, final = 2.7031735 1.0255219
  Final line search alpha, max atom move = 0.036993556 0.037937701
  Iterations, force evaluations = 1 2

write_data final_structure_7.data
System init for write_data ...

# Dump final structure in XYZ format for DFT input
write_dump all xyz final_structure_7.xyz

# Move back to parent directory
shell cd ..

# Increment loop
next i
jump SELF loop_start
clear  # 초기화

# Create and move to a new directory for this run
shell mkdir run_8
shell cd run_8

# LAMMPS Input Script for Finding O2- Adsorption Site for DFT
units real
atom_style charge  # ReaxFF requires charge
boundary p p p  # Periodic boundary conditions

# Copy input files to the new directory
shell cp ../chelpg_updated_c60malonicester.data .
shell cp ../chelpg_updated_O2.data .
shell cp ../ffield.reax.rdx .

# Read input data files
read_data chelpg_updated_c60malonicester.data
Reading data file ...
  orthogonal box = (-20 -20 -20) to (20 20 20)
  reading atoms ...
  81 atoms
read_data chelpg_updated_O2.data add append
Reading data file ...
  orthogonal box = (-20 -20 -20) to (20 20 20)
  reading atoms ...
  2 atoms

# Define groups
group c60 type 1 2 3  # c60 (C, H, O)
81 atoms in group c60
group O2molecule type 4  # O2- (assumed type 4)
2 atoms in group O2molecule

# Fix c60 to prevent unwanted movement
fix freeze c60 setforce 0.0 0.0 0.0

# Define ReaxFF pair style and parameters
pair_style reax/c NULL
pair_coeff * * ffield.reax.rdx C H O O  # O2- included
Reading potential file ffield.reax.rdx with DATE: 2010-02-19

# Charge equilibration (QEq) required for ReaxFF
fix 1 all qeq/reaxff 1 0.0 10.0 1.0e-6 reaxff

# Define MSD computation
compute msdO O2molecule msd

# Generate different random positions for O2-
variable seed1 equal 12345+v_i*1000
variable seed2 equal 67890+v_i*1000
variable seed3 equal 54321+v_i*1000
variable dx equal random(-8,8,v_seed1)
variable dy equal random(-8,8,v_seed2)
variable dz equal random(-8,8,v_seed3)
displace_atoms O2molecule move 5.39910411834717 -7.32698726654053 7.47965145111084 units box
Displacing atoms ...

# Initial energy minimization to relax high-force configurations
minimize 1.0e-6 1.0e-8 5000 10000
Step          Temp          E_pair         E_mol          TotEng         Press
0   0             -13574.506      0             -13574.506      9735.5849
Loop time of 0.0087306 on 1 procs for 3 steps with 83 atoms

Minimization stats:
  Stopping criterion = energy tolerance
  Energy initial, next-to-last, final =
  Force two-norm initial, final = 425.47811 0.13238989
  Force max component initial, final = 300.85925 0.094335775
  Final line search alpha, max atom move = 0.26096981 0.02461879
  Iterations, force evaluations = 3 6

write_data minimized_structure_8.data
System init for write_data ...

# Run NVT MD simulation for O2- to find adsorption site
fix nvt O2molecule nvt temp 300.0 300.0 100.0

fix msdout O2molecule ave/time 100 1 100 c_msdO[1] file msd_O2_8.dat
fix msdoutX O2molecule ave/time 100 1 100 c_msdO[2] file msd_O2_X_8.dat
fix msdoutY O2molecule ave/time 100 1 100 c_msdO[3] file msd_O2_Y_8.dat
fix msdoutZ O2molecule ave/time 100 1 100 c_msdO[4] file msd_O2_Z_8.dat

# Save total energy to a file
variable etotal equal pe+ke

# Bond Order Analysis (Check if O2- is binding)
fix bonds all reax/c/bonds 1000 bonds_8.reax

# Output settings: Save trajectory and bond information
thermo 100
thermo_style custom step temp pe ke etotal press
dump 8 all atom 100 dump_8.lammpstrj

timestep 0.25
run 200000  # 1000 ps
Step          Temp          PotEng         KinEng         TotEng         Press
3   0             -13595.897      0             -13595.897      9879.4172
Averages over the last 1001 of 2002 rows, steps 100100 to 200003:
Temp PotEng KinEng TotEng Press
3.91748 -13602.1 0.957536 -13601.1 9879.81
Loop time of 215.652 on 1 procs for 200000 steps with 83 atoms

# Final energy minimization for most stable adsorption structure
unfix nvt
minimize 1.0e-6 1.0e-8 5000 10000
Step          Temp          PotEng         KinEng         TotEng         Press
200003   6.8658302     -13601.506      1.6781903     -13599.828      9879.2628
Loop time of 0.0039671 on 1 procs for 1 steps with 83 atoms

Minimization stats:
  Stopping criterion = energy tolerance
  Energy initial, next-to-last, final =
  Force two-norm initial, final = 3.341021 1.4308405
  Force max component initial, final = 1.9595667 0.97507276
  Final line search alpha, max atom move = 0.051031691 0.049759612
  Iterations, force evaluations = 1 2

write_data final_structure_8.data
System init for write_data ...

# Dump final structure in XYZ format for DFT input
write_dump all xyz final_structure_8.xyz

# Move back to parent directory
shell cd ..

# Increment loop
next i
jump SELF loop_start
clear  # 초기화

# Create and move to a new directory for this run
shell mkdir run_9
shell cd run_9

# LAMMPS Input Script for Finding O2- Adsorption Site for DFT
units real
atom_style charge  # ReaxFF requires charge
boundary p p p  # Periodic boundary conditions

# Copy input files to the new directory
shell cp ../chelpg_updated_c60malonicester.data .
shell cp ../chelpg_updated_O2.data .
shell cp ../ffield.reax.rdx .

# Read input data files
read_data chelpg_updated_c60malonicester.data
Reading data file ...
  orthogonal box = (-20 -20 -20) to (20 20 20)
  reading atoms ...
  81 atoms
read_data chelpg_updated_O2.data add append
Reading data file ...
  orthogonal box = (-20 -20 -20) to (20 20 20)
  reading atoms ...
  2 atoms

# Define groups
group c60 type 1 2 3  # c60 (C, H, O)
81 atoms in group c60
group O2molecule type 4  # O2- (assumed type 4)
2 atoms in group O2molecule

# Fix c60 to prevent unwanted movement
fix freeze c60 setforce 0.0 0.0 0.0

# Define ReaxFF pair style and parameters
pair_style reax/c NULL
pair_coeff * * ffield.reax.rdx C H O O  # O2- included
Reading potential file ffield.reax.rdx with DATE: 2010-02-19

# Charge equilibration (QEq) required for ReaxFF
fix 1 all qeq/reaxff 1 0.0 10.0 1.0e-6 reaxff

# Define MSD computation
compute msdO O2molecule msd

# Generate different random positions for O2-
variable seed1 equal 12345+v_i*1000
variable seed2 equal 67890+v_i*1000
variable seed3 equal 54321+v_i*1000
variable dx equal random(-8,8,v_seed1)
variable dy equal random(-8,8,v_seed2)
variable dz equal random(-8,8,v_seed3)
displace_atoms O2molecule move 1.96496391296387 1.7472448348999 -4.70522689819336 units box
Displacing atoms ...

# Initial energy minimization to relax high-force configurations
minimize 1.0e-6 1.0e-8 5000 10000
Step          Temp          E_pair         E_mol          TotEng         Press
0   0             -13566.722      0             -13566.722      9780.0617
Loop time of 0.0297333 on 1 procs for 14 steps with 83 atoms

Minimization stats:
  Stopping criterion = energy tolerance
  Energy initial, next-to-last, final =
  Force two-norm initial, final = 411.03727 2.7930751
  Force max component initial, final = 294.40118 1.6714617
  Final line search alpha, max atom move = 0.027322717 0.045668873
  Iterations, force evaluations = 14 23

write_data minimized_structure_9.data
System init for write_data ...

# Run NVT MD simulation for O2- to find adsorption site
fix nvt O2molecule nvt temp 300.0 300.0 100.0

fix msdout O2molecule ave/time 100 1 100 c_msdO[1] file msd_O2_9.dat
fix msdoutX O2molecule ave/time 100 1 100 c_msdO[2] file msd_O2_X_9.dat
fix msdoutY O2molecule ave/time 100 1 100 c_msdO[3] file msd_O2_Y_9.dat
fix msdoutZ O2molecule ave/time 100 1 100 c_msdO[4] file msd_O2_Z_9.dat

# Save total energy to a file
variable etotal equal pe+ke

# Bond Order Analysis (Check if O2- is binding)
fix bonds all reax/c/bonds 1000 bonds_9.reax

# Output settings: Save trajectory and bond information
thermo 100
thermo_style custom step temp pe ke etotal press
dump 9 all atom 100 dump_9.lammpstrj

timestep 0.25
run 200000  # 1000 ps
Step          Temp          PotEng         KinEng         TotEng         Press
14   0             -13597.136      0             -13597.136      9880.87
Averages over the last 1001 of 2002 rows, steps 100100 to 200014:
Temp PotEng KinEng TotEng Press
3.65338 -13602.7 0.892982 -13601.8 9879.99
Loop time of 277.952 on 1 procs for 200000 steps with 83 atoms

# Final energy minimization for most stable adsorption structure
unfix nvt
minimize 1.0e-6 1.0e-8 5000 10000
Step          Temp          PotEng         KinEng         TotEng         Press
200014   12.403502     -13602.189      3.0317438     -13599.158      9878.19
Loop time of 0.0456215 on 1 procs for 1 steps with 83 atoms

Minimization stats:
  Stopping criterion = energy tolerance
  Energy initial, next-to-last, final =
  Force two-norm initial, final = 2.5910372 1.9935626
  Force max component initial, final = 2.135973 1.5141392
  Final line search alpha, max atom move = 0.046817071 0.070887564
  Iterations, force evaluations = 1 2

write_data final_structure_9.data
System init for write_data ...

# Dump final structure in XYZ format for DFT input
write_dump all xyz final_structure_9.xyz

# Move back to parent directory
shell cd ..

# Increment loop
next i
jump SELF loop_start
clear  # 초기화

# Create and move to a new directory for this run
shell mkdir run_10
shell cd run_10

# LAMMPS Input Script for Finding O2- Adsorption Site for DFT
units real
atom_style charge  # ReaxFF requires charge
boundary p p p  # Periodic boundary conditions

# Copy input files to the new directory
shell cp ../chelpg_updated_c60malonicester.data .
shell cp ../chelpg_updated_O2.data .
shell cp ../ffield.reax.rdx .

# Read input data files
read_data chelpg_updated_c60malonicester.data
Reading data file ...
  orthogonal box = (-20 -20 -20) to (20 20 20)
  reading atoms ...
  81 atoms
read_data chelpg_updated_O2.data add append
Reading data file ...
  orthogonal box = (-20 -20 -20) to (20 20 20)
  reading atoms ...
  2 atoms

# Define groups
group c60 type 1 2 3  # c60 (C, H, O)
81 atoms in group c60
group O2molecule type 4  # O2- (assumed type 4)
2 atoms in group O2molecule

# Fix c60 to prevent unwanted movement
fix freeze c60 setforce 0.0 0.0 0.0

# Define ReaxFF pair style and parameters
pair_style reax/c NULL
pair_coeff * * ffield.reax.rdx C H O O  # O2- included
Reading potential file ffield.reax.rdx with DATE: 2010-02-19

# Charge equilibration (QEq) required for ReaxFF
fix 1 all qeq/reaxff 1 0.0 10.0 1.0e-6 reaxff

# Define MSD computation
compute msdO O2molecule msd

# Generate different random positions for O2-
variable seed1 equal 12345+v_i*1000
variable seed2 equal 67890+v_i*1000
variable seed3 equal 54321+v_i*1000
variable dx equal random(-8,8,v_seed1)
variable dy equal random(-8,8,v_seed2)
variable dz equal random(-8,8,v_seed3)
displace_atoms O2molecule move -2.77212715148926 -7.11125183105469 -1.18933773040771 units box
Displacing atoms ...

# Initial energy minimization to relax high-force configurations
minimize 1.0e-6 1.0e-8 5000 10000
Step          Temp          E_pair         E_mol          TotEng         Press
0   0             -13576.16       0             -13576.16       9733.711
Loop time of 0.109563 on 1 procs for 4 steps with 83 atoms

Minimization stats:
  Stopping criterion = energy tolerance
  Energy initial, next-to-last, final =
  Force two-norm initial, final = 425.22942 3.0630201
  Force max component initial, final = 300.87789 2.2571407
  Final line search alpha, max atom move = 0.013915183 0.031408526
  Iterations, force evaluations = 4 7

write_data minimized_structure_10.data
System init for write_data ...

# Run NVT MD simulation for O2- to find adsorption site
fix nvt O2molecule nvt temp 300.0 300.0 100.0

fix msdout O2molecule ave/time 100 1 100 c_msdO[1] file msd_O2_10.dat
fix msdoutX O2molecule ave/time 100 1 100 c_msdO[2] file msd_O2_X_10.dat
fix msdoutY O2molecule ave/time 100 1 100 c_msdO[3] file msd_O2_Y_10.dat
fix msdoutZ O2molecule ave/time 100 1 100 c_msdO[4] file msd_O2_Z_10.dat

# Save total energy to a file
variable etotal equal pe+ke

# Bond Order Analysis (Check if O2- is binding)
fix bonds all reax/c/bonds 1000 bonds_10.reax

# Output settings: Save trajectory and bond information
thermo 100
thermo_style custom step temp pe ke etotal press
dump 10 all atom 100 dump_10.lammpstrj

timestep 0.25
run 200000  # 1000 ps
Step          Temp          PotEng         KinEng         TotEng         Press
4   0             -13597.651      0             -13597.651      9878.5501
Averages over the last 1001 of 2002 rows, steps 100100 to 200004:
Temp PotEng KinEng TotEng Press
3.86249 -13602.4 0.944095 -13601.4 9879.71
Loop time of 333.125 on 1 procs for 200000 steps with 83 atoms

# Final energy minimization for most stable adsorption structure
unfix nvt
minimize 1.0e-6 1.0e-8 5000 10000
Step          Temp          PotEng         KinEng         TotEng         Press
200004   0.078625408   -13602.653      0.019218127   -13602.634      9877.5988
Loop time of 0.0101012 on 1 procs for 4 steps with 83 atoms

Minimization stats:
  Stopping criterion = energy tolerance
  Energy initial, next-to-last, final =
  Force two-norm initial, final = 1.2818145 0.65436334
  Force max component initial, final = 0.81703918 0.49283229
  Final line search alpha, max atom move = 0.14476682 0.071345765
  Iterations, force evaluations = 4 7

write_data final_structure_10.data
System init for write_data ...

# Dump final structure in XYZ format for DFT input
write_dump all xyz final_structure_10.xyz

# Move back to parent directory
shell cd ..

# Increment loop
next i
jump SELF loop_start
clear  # 초기화

# Create and move to a new directory for this run
shell mkdir run_11
shell cd run_11

# LAMMPS Input Script for Finding O2- Adsorption Site for DFT
units real
atom_style charge  # ReaxFF requires charge
boundary p p p  # Periodic boundary conditions

# Copy input files to the new directory
shell cp ../chelpg_updated_c60malonicester.data .
shell cp ../chelpg_updated_O2.data .
shell cp ../ffield.reax.rdx .

# Read input data files
read_data chelpg_updated_c60malonicester.data
Reading data file ...
  orthogonal box = (-20 -20 -20) to (20 20 20)
  reading atoms ...
  81 atoms
read_data chelpg_updated_O2.data add append
Reading data file ...
  orthogonal box = (-20 -20 -20) to (20 20 20)
  reading atoms ...
  2 atoms

# Define groups
group c60 type 1 2 3  # c60 (C, H, O)
81 atoms in group c60
group O2molecule type 4  # O2- (assumed type 4)
2 atoms in group O2molecule

# Fix c60 to prevent unwanted movement
fix freeze c60 setforce 0.0 0.0 0.0

# Define ReaxFF pair style and parameters
pair_style reax/c NULL
pair_coeff * * ffield.reax.rdx C H O O  # O2- included
Reading potential file ffield.reax.rdx with DATE: 2010-02-19

# Charge equilibration (QEq) required for ReaxFF
fix 1 all qeq/reaxff 1 0.0 10.0 1.0e-6 reaxff

# Define MSD computation
compute msdO O2molecule msd

# Generate different random positions for O2-
variable seed1 equal 12345+v_i*1000
variable seed2 equal 67890+v_i*1000
variable seed3 equal 54321+v_i*1000
variable dx equal random(-8,8,v_seed1)
variable dy equal random(-8,8,v_seed2)
variable dz equal random(-8,8,v_seed3)
displace_atoms O2molecule move -4.39936828613281 -6.56892871856689 7.53422164916992 units box
Displacing atoms ...

# Initial energy minimization to relax high-force configurations
minimize 1.0e-6 1.0e-8 5000 10000
Step          Temp          E_pair         E_mol          TotEng         Press
0   0             -13574.516      0             -13574.516      9735.5505
Loop time of 0.0085501 on 1 procs for 3 steps with 83 atoms

Minimization stats:
  Stopping criterion = energy tolerance
  Energy initial, next-to-last, final =
  Force two-norm initial, final = 425.47147 0.13690147
  Force max component initial, final = 300.858 0.10019671
  Final line search alpha, max atom move = 0.26148235 0.026199671
  Iterations, force evaluations = 3 6

write_data minimized_structure_11.data
System init for write_data ...

# Run NVT MD simulation for O2- to find adsorption site
fix nvt O2molecule nvt temp 300.0 300.0 100.0

fix msdout O2molecule ave/time 100 1 100 c_msdO[1] file msd_O2_11.dat
fix msdoutX O2molecule ave/time 100 1 100 c_msdO[2] file msd_O2_X_11.dat
fix msdoutY O2molecule ave/time 100 1 100 c_msdO[3] file msd_O2_Y_11.dat
fix msdoutZ O2molecule ave/time 100 1 100 c_msdO[4] file msd_O2_Z_11.dat

# Save total energy to a file
variable etotal equal pe+ke

# Bond Order Analysis (Check if O2- is binding)
fix bonds all reax/c/bonds 1000 bonds_11.reax

# Output settings: Save trajectory and bond information
thermo 100
thermo_style custom step temp pe ke etotal press
dump 11 all atom 100 dump_11.lammpstrj

timestep 0.25
run 200000  # 1000 ps
Step          Temp          PotEng         KinEng         TotEng         Press
3   0             -13595.906      0             -13595.906      9879.3816
Averages over the last 1001 of 2002 rows, steps 100100 to 200003:
Temp PotEng KinEng TotEng Press
3.79095 -13602.7 0.926607 -13601.7 9879.85
Loop time of 219.778 on 1 procs for 200000 steps with 83 atoms

# Final energy minimization for most stable adsorption structure
unfix nvt
minimize 1.0e-6 1.0e-8 5000 10000
Step          Temp          PotEng         KinEng         TotEng         Press
200003   3.4867485     -13602.043      0.85225347    -13601.19       9881.2043
Loop time of 0.0132362 on 1 procs for 5 steps with 83 atoms

Minimization stats:
  Stopping criterion = energy tolerance
  Energy initial, next-to-last, final =
  Force two-norm initial, final = 2.3038104 4.1440266
  Force max component initial, final = 1.7302847 2.8639286
  Final line search alpha, max atom move = 0.05770801 0.16527162
  Iterations, force evaluations = 5 9

write_data final_structure_11.data
System init for write_data ...

# Dump final structure in XYZ format for DFT input
write_dump all xyz final_structure_11.xyz

# Move back to parent directory
shell cd ..

# Increment loop
next i
jump SELF loop_start
clear  # 초기화

# Create and move to a new directory for this run
shell mkdir run_12
shell cd run_12

# LAMMPS Input Script for Finding O2- Adsorption Site for DFT
units real
atom_style charge  # ReaxFF requires charge
boundary p p p  # Periodic boundary conditions

# Copy input files to the new directory
shell cp ../chelpg_updated_c60malonicester.data .
shell cp ../chelpg_updated_O2.data .
shell cp ../ffield.reax.rdx .

# Read input data files
read_data chelpg_updated_c60malonicester.data
Reading data file ...
  orthogonal box = (-20 -20 -20) to (20 20 20)
  reading atoms ...
  81 atoms
read_data chelpg_updated_O2.data add append
Reading data file ...
  orthogonal box = (-20 -20 -20) to (20 20 20)
  reading atoms ...
  2 atoms

# Define groups
group c60 type 1 2 3  # c60 (C, H, O)
81 atoms in group c60
group O2molecule type 4  # O2- (assumed type 4)
2 atoms in group O2molecule

# Fix c60 to prevent unwanted movement
fix freeze c60 setforce 0.0 0.0 0.0

# Define ReaxFF pair style and parameters
pair_style reax/c NULL
pair_coeff * * ffield.reax.rdx C H O O  # O2- included
Reading potential file ffield.reax.rdx with DATE: 2010-02-19

# Charge equilibration (QEq) required for ReaxFF
fix 1 all qeq/reaxff 1 0.0 10.0 1.0e-6 reaxff

# Define MSD computation
compute msdO O2molecule msd

# Generate different random positions for O2-
variable seed1 equal 12345+v_i*1000
variable seed2 equal 67890+v_i*1000
variable seed3 equal 54321+v_i*1000
variable dx equal random(-8,8,v_seed1)
variable dy equal random(-8,8,v_seed2)
variable dz equal random(-8,8,v_seed3)
displace_atoms O2molecule move -0.00277042388916016 -7.38395309448242 -2.06953620910645 units box
Displacing atoms ...

# Initial energy minimization to relax high-force configurations
minimize 1.0e-6 1.0e-8 5000 10000
Step          Temp          E_pair         E_mol          TotEng         Press
0   0             -13576.027      0             -13576.027      9733.5273
Loop time of 0.0197657 on 1 procs for 9 steps with 83 atoms

Minimization stats:
  Stopping criterion = energy tolerance
  Energy initial, next-to-last, final =
  Force two-norm initial, final = 425.22885 4.0044879
  Force max component initial, final = 300.72727 2.8109441
  Final line search alpha, max atom move = 0.0044045004 0.012380804
  Iterations, force evaluations = 9 15

write_data minimized_structure_12.data
System init for write_data ...

# Run NVT MD simulation for O2- to find adsorption site
fix nvt O2molecule nvt temp 300.0 300.0 100.0

fix msdout O2molecule ave/time 100 1 100 c_msdO[1] file msd_O2_12.dat
fix msdoutX O2molecule ave/time 100 1 100 c_msdO[2] file msd_O2_X_12.dat
fix msdoutY O2molecule ave/time 100 1 100 c_msdO[3] file msd_O2_Y_12.dat
fix msdoutZ O2molecule ave/time 100 1 100 c_msdO[4] file msd_O2_Z_12.dat

# Save total energy to a file
variable etotal equal pe+ke

# Bond Order Analysis (Check if O2- is binding)
fix bonds all reax/c/bonds 1000 bonds_12.reax

# Output settings: Save trajectory and bond information
thermo 100
thermo_style custom step temp pe ke etotal press
dump 12 all atom 100 dump_12.lammpstrj

timestep 0.25
run 200000  # 1000 ps
Step          Temp          PotEng         KinEng         TotEng         Press
9   0             -13597.89       0             -13597.89       9879.3009
Averages over the last 1001 of 2002 rows, steps 100100 to 200009:
Temp PotEng KinEng TotEng Press
3.87174 -13600.9 0.946357 -13600 9879.69
Loop time of 214.367 on 1 procs for 200000 steps with 83 atoms

# Final energy minimization for most stable adsorption structure
unfix nvt
minimize 1.0e-6 1.0e-8 5000 10000
Step          Temp          PotEng         KinEng         TotEng         Press
200009   0.98958728    -13602.544      0.24188128    -13602.302      9876.0536
Loop time of 0.0041476 on 1 procs for 1 steps with 83 atoms

Minimization stats:
  Stopping criterion = energy tolerance
  Energy initial, next-to-last, final =
  Force two-norm initial, final = 3.5268962 1.7304685
  Force max component initial, final = 2.2722405 1.1912908
  Final line search alpha, max atom move = 0.044009426 0.052428022
  Iterations, force evaluations = 1 2

write_data final_structure_12.data
System init for write_data ...

# Dump final structure in XYZ format for DFT input
write_dump all xyz final_structure_12.xyz

# Move back to parent directory
shell cd ..

# Increment loop
next i
jump SELF loop_start
clear  # 초기화

# Create and move to a new directory for this run
shell mkdir run_13
shell cd run_13

# LAMMPS Input Script for Finding O2- Adsorption Site for DFT
units real
atom_style charge  # ReaxFF requires charge
boundary p p p  # Periodic boundary conditions

# Copy input files to the new directory
shell cp ../chelpg_updated_c60malonicester.data .
shell cp ../chelpg_updated_O2.data .
shell cp ../ffield.reax.rdx .

# Read input data files
read_data chelpg_updated_c60malonicester.data
Reading data file ...
  orthogonal box = (-20 -20 -20) to (20 20 20)
  reading atoms ...
  81 atoms
read_data chelpg_updated_O2.data add append
Reading data file ...
  orthogonal box = (-20 -20 -20) to (20 20 20)
  reading atoms ...
  2 atoms

# Define groups
group c60 type 1 2 3  # c60 (C, H, O)
81 atoms in group c60
group O2molecule type 4  # O2- (assumed type 4)
2 atoms in group O2molecule

# Fix c60 to prevent unwanted movement
fix freeze c60 setforce 0.0 0.0 0.0

# Define ReaxFF pair style and parameters
pair_style reax/c NULL
pair_coeff * * ffield.reax.rdx C H O O  # O2- included
Reading potential file ffield.reax.rdx with DATE: 2010-02-19

# Charge equilibration (QEq) required for ReaxFF
fix 1 all qeq/reaxff 1 0.0 10.0 1.0e-6 reaxff

# Define MSD computation
compute msdO O2molecule msd

# Generate different random positions for O2-
variable seed1 equal 12345+v_i*1000
variable seed2 equal 67890+v_i*1000
variable seed3 equal 54321+v_i*1000
variable dx equal random(-8,8,v_seed1)
variable dy equal random(-8,8,v_seed2)
variable dz equal random(-8,8,v_seed3)
displace_atoms O2molecule move -2.78627967834473 7.34086132049561 -1.648756980896 units box
Displacing atoms ...

# Initial energy minimization to relax high-force configurations
minimize 1.0e-6 1.0e-8 5000 10000
Step          Temp          E_pair         E_mol          TotEng         Press
0   0             -12001.161      0             -12001.161      11459.244
Loop time of 0.160061 on 1 procs for 63 steps with 83 atoms

Minimization stats:
  Stopping criterion = energy tolerance
  Energy initial, next-to-last, final =
  Force two-norm initial, final = 946.72863 9.0241824
  Force max component initial, final = 572.6108 5.6072351
  Final line search alpha, max atom move = 0.024973354 0.14003147
  Iterations, force evaluations = 63 127

write_data minimized_structure_13.data
System init for write_data ...

# Run NVT MD simulation for O2- to find adsorption site
fix nvt O2molecule nvt temp 300.0 300.0 100.0

fix msdout O2molecule ave/time 100 1 100 c_msdO[1] file msd_O2_13.dat
fix msdoutX O2molecule ave/time 100 1 100 c_msdO[2] file msd_O2_X_13.dat
fix msdoutY O2molecule ave/time 100 1 100 c_msdO[3] file msd_O2_Y_13.dat
fix msdoutZ O2molecule ave/time 100 1 100 c_msdO[4] file msd_O2_Z_13.dat

# Save total energy to a file
variable etotal equal pe+ke

# Bond Order Analysis (Check if O2- is binding)
fix bonds all reax/c/bonds 1000 bonds_13.reax

# Output settings: Save trajectory and bond information
thermo 100
thermo_style custom step temp pe ke etotal press
dump 13 all atom 100 dump_13.lammpstrj

timestep 0.25
run 200000  # 1000 ps
Step          Temp          PotEng         KinEng         TotEng         Press
63   0             -13599.945      0             -13599.945      9886.635
Averages over the last 1001 of 2002 rows, steps 100100 to 200063:
Temp PotEng KinEng TotEng Press
3.66234 -13602.7 0.895174 -13601.8 9880.03
Loop time of 216.93 on 1 procs for 200000 steps with 83 atoms

# Final energy minimization for most stable adsorption structure
unfix nvt
minimize 1.0e-6 1.0e-8 5000 10000
Step          Temp          PotEng         KinEng         TotEng         Press
200063   3.2249515     -13602.317      0.78826337    -13601.528      9878.6721
Loop time of 0.0044209 on 1 procs for 1 steps with 83 atoms

Minimization stats:
  Stopping criterion = energy tolerance
  Energy initial, next-to-last, final =
  Force two-norm initial, final = 1.8121824 1.0613372
  Force max component initial, final = 1.2757987 0.71101518
  Final line search alpha, max atom move = 0.078382273 0.055730986
  Iterations, force evaluations = 1 2

write_data final_structure_13.data
System init for write_data ...

# Dump final structure in XYZ format for DFT input
write_dump all xyz final_structure_13.xyz

# Move back to parent directory
shell cd ..

# Increment loop
next i
jump SELF loop_start
clear  # 초기화

# Create and move to a new directory for this run
shell mkdir run_14
shell cd run_14

# LAMMPS Input Script for Finding O2- Adsorption Site for DFT
units real
atom_style charge  # ReaxFF requires charge
boundary p p p  # Periodic boundary conditions

# Copy input files to the new directory
shell cp ../chelpg_updated_c60malonicester.data .
shell cp ../chelpg_updated_O2.data .
shell cp ../ffield.reax.rdx .

# Read input data files
read_data chelpg_updated_c60malonicester.data
Reading data file ...
  orthogonal box = (-20 -20 -20) to (20 20 20)
  reading atoms ...
  81 atoms
read_data chelpg_updated_O2.data add append
Reading data file ...
  orthogonal box = (-20 -20 -20) to (20 20 20)
  reading atoms ...
  2 atoms

# Define groups
group c60 type 1 2 3  # c60 (C, H, O)
81 atoms in group c60
group O2molecule type 4  # O2- (assumed type 4)
2 atoms in group O2molecule

# Fix c60 to prevent unwanted movement
fix freeze c60 setforce 0.0 0.0 0.0

# Define ReaxFF pair style and parameters
pair_style reax/c NULL
pair_coeff * * ffield.reax.rdx C H O O  # O2- included
Reading potential file ffield.reax.rdx with DATE: 2010-02-19

# Charge equilibration (QEq) required for ReaxFF
fix 1 all qeq/reaxff 1 0.0 10.0 1.0e-6 reaxff

# Define MSD computation
compute msdO O2molecule msd

# Generate different random positions for O2-
variable seed1 equal 12345+v_i*1000
variable seed2 equal 67890+v_i*1000
variable seed3 equal 54321+v_i*1000
variable dx equal random(-8,8,v_seed1)
variable dy equal random(-8,8,v_seed2)
variable dz equal random(-8,8,v_seed3)
displace_atoms O2molecule move -6.39641952514648 -4.8987922668457 2.23909759521484 units box
Displacing atoms ...

# Initial energy minimization to relax high-force configurations
minimize 1.0e-6 1.0e-8 5000 10000
Step          Temp          E_pair         E_mol          TotEng         Press
0   0             -13575.438      0             -13575.438      9734.1094
Loop time of 0.0098283 on 1 procs for 4 steps with 83 atoms

Minimization stats:
  Stopping criterion = energy tolerance
  Energy initial, next-to-last, final =
  Force two-norm initial, final = 425.1202 4.9141965
  Force max component initial, final = 300.96795 3.808333
  Final line search alpha, max atom move = 0.0077208819 0.029403689
  Iterations, force evaluations = 4 7

write_data minimized_structure_14.data
System init for write_data ...

# Run NVT MD simulation for O2- to find adsorption site
fix nvt O2molecule nvt temp 300.0 300.0 100.0

fix msdout O2molecule ave/time 100 1 100 c_msdO[1] file msd_O2_14.dat
fix msdoutX O2molecule ave/time 100 1 100 c_msdO[2] file msd_O2_X_14.dat
fix msdoutY O2molecule ave/time 100 1 100 c_msdO[3] file msd_O2_Y_14.dat
fix msdoutZ O2molecule ave/time 100 1 100 c_msdO[4] file msd_O2_Z_14.dat

# Save total energy to a file
variable etotal equal pe+ke

# Bond Order Analysis (Check if O2- is binding)
fix bonds all reax/c/bonds 1000 bonds_14.reax

# Output settings: Save trajectory and bond information
thermo 100
thermo_style custom step temp pe ke etotal press
dump 14 all atom 100 dump_14.lammpstrj

timestep 0.25
run 200000  # 1000 ps
Loop time of 212.435 on 1 procs for 200000 steps with 83 atoms

# Final energy minimization for most stable adsorption structure
unfix nvt
minimize 1.0e-6 1.0e-8 5000 10000
Loop time of 0.0101287 on 1 procs for 4 steps with 83 atoms

Minimization stats:
  Stopping criterion = energy tolerance
  Energy initial, next-to-last, final =
  Force two-norm initial, final = 1.6820843 3.4084121
  Force max component initial, final = 1.1622608 2.5378383
  Final line search alpha, max atom move = 0.11918522 0.30247282
  Iterations, force evaluations = 4 7

write_data final_structure_14.data
System init for write_data ...

# Dump final structure in XYZ format for DFT input
write_dump all xyz final_structure_14.xyz

# Move back to parent directory
shell cd ..

# Increment loop
next i
jump SELF loop_start
clear  # 초기화

# Create and move to a new directory for this run
shell mkdir run_15
shell cd run_15

# LAMMPS Input Script for Finding O2- Adsorption Site for DFT
units real
atom_style charge  # ReaxFF requires charge
boundary p p p  # Periodic boundary conditions

# Copy input files to the new directory
shell cp ../chelpg_updated_c60malonicester.data .
shell cp ../chelpg_updated_O2.data .
shell cp ../ffield.reax.rdx .

# Read input data files
read_data chelpg_updated_c60malonicester.data
Reading data file ...
  orthogonal box = (-20 -20 -20) to (20 20 20)
  reading atoms ...
  81 atoms
read_data chelpg_updated_O2.data add append
Reading data file ...
  orthogonal box = (-20 -20 -20) to (20 20 20)
  reading atoms ...
  2 atoms

# Define groups
group c60 type 1 2 3  # c60 (C, H, O)
81 atoms in group c60
group O2molecule type 4  # O2- (assumed type 4)
2 atoms in group O2molecule

# Fix c60 to prevent unwanted movement
fix freeze c60 setforce 0.0 0.0 0.0

# Define ReaxFF pair style and parameters
pair_style reax/c NULL
pair_coeff * * ffield.reax.rdx C H O O  # O2- included
Reading potential file ffield.reax.rdx with DATE: 2010-02-19

# Charge equilibration (QEq) required for ReaxFF
fix 1 all qeq/reaxff 1 0.0 10.0 1.0e-6 reaxff

# Define MSD computation
compute msdO O2molecule msd

# Generate different random positions for O2-
variable seed1 equal 12345+v_i*1000
variable seed2 equal 67890+v_i*1000
variable seed3 equal 54321+v_i*1000
variable dx equal random(-8,8,v_seed1)
variable dy equal random(-8,8,v_seed2)
variable dz equal random(-8,8,v_seed3)
displace_atoms O2molecule move 6.3379430770874 5.14370441436768 0.336454391479492 units box
Displacing atoms ...

# Initial energy minimization to relax high-force configurations
minimize 1.0e-6 1.0e-8 5000 10000
Loop time of 0.0085074 on 1 procs for 3 steps with 83 atoms

Minimization stats:
  Stopping criterion = energy tolerance
  Energy initial, next-to-last, final =
  Force two-norm initial, final = 425.54646 5.0474091
  Force max component initial, final = 301.02207 3.6801837
  Final line search alpha, max atom move = 0.61265974 2.2547004
  Iterations, force evaluations = 3 6

write_data minimized_structure_15.data
System init for write_data ...

# Run NVT MD simulation for O2- to find adsorption site
fix nvt O2molecule nvt temp 300.0 300.0 100.0

fix msdout O2molecule ave/time 100 1 100 c_msdO[1] file msd_O2_15.dat
fix msdoutX O2molecule ave/time 100 1 100 c_msdO[2] file msd_O2_X_15.dat
fix msdoutY O2molecule ave/time 100 1 100 c_msdO[3] file msd_O2_Y_15.dat
fix msdoutZ O2molecule ave/time 100 1 100 c_msdO[4] file msd_O2_Z_15.dat

# Save total energy to a file
variable etotal equal pe+ke

# Bond Order Analysis (Check if O2- is binding)
fix bonds all reax/c/bonds 1000 bonds_15.reax

# Output settings: Save trajectory and bond information
thermo 100
thermo_style custom step temp pe ke etotal press
dump 15 all atom 100 dump_15.lammpstrj

timestep 0.25
run 200000  # 1000 ps
Loop time of 210.862 on 1 procs for 200000 steps with 83 atoms

# Final energy minimization for most stable adsorption structure
unfix nvt
minimize 1.0e-6 1.0e-8 5000 10000
Loop time of 0.0056614 on 1 procs for 2 steps with 83 atoms

Minimization stats:
  Stopping criterion = energy tolerance
  Energy initial, next-to-last, final =
  Force two-norm initial, final = 12.6637 0.12982997
  Force max component initial, final = 7.6726407 0.078660951
  Final line search alpha, max atom move = 0.12353948 0.0097177331
  Iterations, force evaluations = 2 4

write_data final_structure_15.data
System init for write_data ...

# Dump final structure in XYZ format for DFT input
write_dump all xyz final_structure_15.xyz

# Move back to parent directory
shell cd ..

# Increment loop
next i
jump SELF loop_start
clear  # 초기화

# Create and move to a new directory for this run
shell mkdir run_16
shell cd run_16

# LAMMPS Input Script for Finding O2- Adsorption Site for DFT
units real
atom_style charge  # ReaxFF requires charge
boundary p p p  # Periodic boundary conditions

# Copy input files to the new directory
shell cp ../chelpg_updated_c60malonicester.data .
shell cp ../chelpg_updated_O2.data .
shell cp ../ffield.reax.rdx .

# Read input data files
read_data chelpg_updated_c60malonicester.data
Reading data file ...
  orthogonal box = (-20 -20 -20) to (20 20 20)
  reading atoms ...
  81 atoms
read_data chelpg_updated_O2.data add append
Reading data file ...
  orthogonal box = (-20 -20 -20) to (20 20 20)
  reading atoms ...
  2 atoms

# Define groups
group c60 type 1 2 3  # c60 (C, H, O)
81 atoms in group c60
group O2molecule type 4  # O2- (assumed type 4)
2 atoms in group O2molecule

# Fix c60 to prevent unwanted movement
fix freeze c60 setforce 0.0 0.0 0.0

# Define ReaxFF pair style and parameters
pair_style reax/c NULL
pair_coeff * * ffield.reax.rdx C H O O  # O2- included
Reading potential file ffield.reax.rdx with DATE: 2010-02-19

# Charge equilibration (QEq) required for ReaxFF
fix 1 all qeq/reaxff 1 0.0 10.0 1.0e-6 reaxff

# Define MSD computation
compute msdO O2molecule msd

# Generate different random positions for O2-
variable seed1 equal 12345+v_i*1000
variable seed2 equal 67890+v_i*1000
variable seed3 equal 54321+v_i*1000
variable dx equal random(-8,8,v_seed1)
variable dy equal random(-8,8,v_seed2)
variable dz equal random(-8,8,v_seed3)
displace_atoms O2molecule move -0.562953948974609 -5.37115001678467 -1.19016170501709 units box
Displacing atoms ...

# Initial energy minimization to relax high-force configurations
minimize 1.0e-6 1.0e-8 5000 10000
Loop time of 0.0542908 on 1 procs for 21 steps with 83 atoms

Minimization stats:
  Stopping criterion = energy tolerance
  Energy initial, next-to-last, final =
  Force two-norm initial, final = 453.04984 26.70886
  Force max component initial, final = 391.4652 17.135848
  Final line search alpha, max atom move = 0.0047863739 0.082018574
  Iterations, force evaluations = 21 42

write_data minimized_structure_16.data
System init for write_data ...

# Run NVT MD simulation for O2- to find adsorption site
fix nvt O2molecule nvt temp 300.0 300.0 100.0

fix msdout O2molecule ave/time 100 1 100 c_msdO[1] file msd_O2_16.dat
fix msdoutX O2molecule ave/time 100 1 100 c_msdO[2] file msd_O2_X_16.dat
fix msdoutY O2molecule ave/time 100 1 100 c_msdO[3] file msd_O2_Y_16.dat
fix msdoutZ O2molecule ave/time 100 1 100 c_msdO[4] file msd_O2_Z_16.dat

# Save total energy to a file
variable etotal equal pe+ke

# Bond Order Analysis (Check if O2- is binding)
fix bonds all reax/c/bonds 1000 bonds_16.reax

# Output settings: Save trajectory and bond information
thermo 100
thermo_style custom step temp pe ke etotal press
dump 16 all atom 100 dump_16.lammpstrj

timestep 0.25
run 200000  # 1000 ps
Loop time of 230.141 on 1 procs for 200000 steps with 83 atoms

# Final energy minimization for most stable adsorption structure
unfix nvt
minimize 1.0e-6 1.0e-8 5000 10000
Loop time of 0.0260723 on 1 procs for 10 steps with 83 atoms

Minimization stats:
  Stopping criterion = energy tolerance
  Energy initial, next-to-last, final =
  Force two-norm initial, final = 28.26835 3.6748869
  Force max component initial, final = 15.868963 2.0086004
  Final line search alpha, max atom move = 0.027745066 0.05572875
  Iterations, force evaluations = 10 19

write_data final_structure_16.data
System init for write_data ...

# Dump final structure in XYZ format for DFT input
write_dump all xyz final_structure_16.xyz

# Move back to parent directory
shell cd ..

# Increment loop
next i
jump SELF loop_start
clear  # 초기화

# Create and move to a new directory for this run
shell mkdir run_17
shell cd run_17

# LAMMPS Input Script for Finding O2- Adsorption Site for DFT
units real
atom_style charge  # ReaxFF requires charge
boundary p p p  # Periodic boundary conditions

# Copy input files to the new directory
shell cp ../chelpg_updated_c60malonicester.data .
shell cp ../chelpg_updated_O2.data .
shell cp ../ffield.reax.rdx .

# Read input data files
read_data chelpg_updated_c60malonicester.data
Reading data file ...
  orthogonal box = (-20 -20 -20) to (20 20 20)
  reading atoms ...
  81 atoms
read_data chelpg_updated_O2.data add append
Reading data file ...
  orthogonal box = (-20 -20 -20) to (20 20 20)
  reading atoms ...
  2 atoms

# Define groups
group c60 type 1 2 3  # c60 (C, H, O)
81 atoms in group c60
group O2molecule type 4  # O2- (assumed type 4)
2 atoms in group O2molecule

# Fix c60 to prevent unwanted movement
fix freeze c60 setforce 0.0 0.0 0.0

# Define ReaxFF pair style and parameters
pair_style reax/c NULL
pair_coeff * * ffield.reax.rdx C H O O  # O2- included
Reading potential file ffield.reax.rdx with DATE: 2010-02-19

# Charge equilibration (QEq) required for ReaxFF
fix 1 all qeq/reaxff 1 0.0 10.0 1.0e-6 reaxff

# Define MSD computation
compute msdO O2molecule msd

# Generate different random positions for O2-
variable seed1 equal 12345+v_i*1000
variable seed2 equal 67890+v_i*1000
variable seed3 equal 54321+v_i*1000
variable dx equal random(-8,8,v_seed1)
variable dy equal random(-8,8,v_seed2)
variable dz equal random(-8,8,v_seed3)
displace_atoms O2molecule move 1.85508632659912 -3.96084690093994 6.07418727874756 units box
Displacing atoms ...

# Initial energy minimization to relax high-force configurations
minimize 1.0e-6 1.0e-8 5000 10000
Loop time of 0.0096254 on 1 procs for 4 steps with 83 atoms

Minimization stats:
  Stopping criterion = energy tolerance
  Energy initial, next-to-last, final =
  Force two-norm initial, final = 425.27701 5.4368312
  Force max component initial, final = 300.88248 3.9757618
  Final line search alpha, max atom move = 0.0050331728 0.020010696
  Iterations, force evaluations = 4 7

write_data minimized_structure_17.data
System init for write_data ...

# Run NVT MD simulation for O2- to find adsorption site
fix nvt O2molecule nvt temp 300.0 300.0 100.0

fix msdout O2molecule ave/time 100 1 100 c_msdO[1] file msd_O2_17.dat
fix msdoutX O2molecule ave/time 100 1 100 c_msdO[2] file msd_O2_X_17.dat
fix msdoutY O2molecule ave/time 100 1 100 c_msdO[3] file msd_O2_Y_17.dat
fix msdoutZ O2molecule ave/time 100 1 100 c_msdO[4] file msd_O2_Z_17.dat

# Save total energy to a file
variable etotal equal pe+ke

# Bond Order Analysis (Check if O2- is binding)
fix bonds all reax/c/bonds 1000 bonds_17.reax

# Output settings: Save trajectory and bond information
thermo 100
thermo_style custom step temp pe ke etotal press
dump 17 all atom 100 dump_17.lammpstrj

timestep 0.25
run 200000  # 1000 ps
Loop time of 218.444 on 1 procs for 200000 steps with 83 atoms

# Final energy minimization for most stable adsorption structure
unfix nvt
minimize 1.0e-6 1.0e-8 5000 10000
Loop time of 0.0039371 on 1 procs for 1 steps with 83 atoms

Minimization stats:
  Stopping criterion = energy tolerance
  Energy initial, next-to-last, final =
  Force two-norm initial, final = 0.98641968 0.73833067
  Force max component initial, final = 0.60625866 0.43008667
  Final line search alpha, max atom move = 0.1649461 0.070941119
  Iterations, force evaluations = 1 2

write_data final_structure_17.data
System init for write_data ...

# Dump final structure in XYZ format for DFT input
write_dump all xyz final_structure_17.xyz

# Move back to parent directory
shell cd ..

# Increment loop
next i
jump SELF loop_start
clear  # 초기화

# Create and move to a new directory for this run
shell mkdir run_18
shell cd run_18

# LAMMPS Input Script for Finding O2- Adsorption Site for DFT
units real
atom_style charge  # ReaxFF requires charge
boundary p p p  # Periodic boundary conditions

# Copy input files to the new directory
shell cp ../chelpg_updated_c60malonicester.data .
shell cp ../chelpg_updated_O2.data .
shell cp ../ffield.reax.rdx .

# Read input data files
read_data chelpg_updated_c60malonicester.data
Reading data file ...
  orthogonal box = (-20 -20 -20) to (20 20 20)
  reading atoms ...
  81 atoms
read_data chelpg_updated_O2.data add append
Reading data file ...
  orthogonal box = (-20 -20 -20) to (20 20 20)
  reading atoms ...
  2 atoms

# Define groups
group c60 type 1 2 3  # c60 (C, H, O)
81 atoms in group c60
group O2molecule type 4  # O2- (assumed type 4)
2 atoms in group O2molecule

# Fix c60 to prevent unwanted movement
fix freeze c60 setforce 0.0 0.0 0.0

# Define ReaxFF pair style and parameters
pair_style reax/c NULL
pair_coeff * * ffield.reax.rdx C H O O  # O2- included
Reading potential file ffield.reax.rdx with DATE: 2010-02-19

# Charge equilibration (QEq) required for ReaxFF
fix 1 all qeq/reaxff 1 0.0 10.0 1.0e-6 reaxff

# Define MSD computation
compute msdO O2molecule msd

# Generate different random positions for O2-
variable seed1 equal 12345+v_i*1000
variable seed2 equal 67890+v_i*1000
variable seed3 equal 54321+v_i*1000
variable dx equal random(-8,8,v_seed1)
variable dy equal random(-8,8,v_seed2)
variable dz equal random(-8,8,v_seed3)
displace_atoms O2molecule move 5.56627368927002 7.98500156402588 4.81162548065186 units box
Displacing atoms ...

# Initial energy minimization to relax high-force configurations
minimize 1.0e-6 1.0e-8 5000 10000
Loop time of 0.0095957 on 1 procs for 4 steps with 83 atoms

Minimization stats:
  Stopping criterion = energy tolerance
  Energy initial, next-to-last, final =
  Force two-norm initial, final = 425.15263 4.0374135
  Force max component initial, final = 300.87722 3.0986776
  Final line search alpha, max atom move = 0.0037221968 0.011533888
  Iterations, force evaluations = 4 7

write_data minimized_structure_18.data
System init for write_data ...

# Run NVT MD simulation for O2- to find adsorption site
fix nvt O2molecule nvt temp 300.0 300.0 100.0

fix msdout O2molecule ave/time 100 1 100 c_msdO[1] file msd_O2_18.dat
fix msdoutX O2molecule ave/time 100 1 100 c_msdO[2] file msd_O2_X_18.dat
fix msdoutY O2molecule ave/time 100 1 100 c_msdO[3] file msd_O2_Y_18.dat
fix msdoutZ O2molecule ave/time 100 1 100 c_msdO[4] file msd_O2_Z_18.dat

# Save total energy to a file
variable etotal equal pe+ke

# Bond Order Analysis (Check if O2- is binding)
fix bonds all reax/c/bonds 1000 bonds_18.reax

# Output settings: Save trajectory and bond information
thermo 100
thermo_style custom step temp pe ke etotal press
dump 18 all atom 100 dump_18.lammpstrj

timestep 0.25
run 200000  # 1000 ps
Loop time of 213.634 on 1 procs for 200000 steps with 83 atoms

# Final energy minimization for most stable adsorption structure
unfix nvt
minimize 1.0e-6 1.0e-8 5000 10000
Loop time of 0.0039391 on 1 procs for 1 steps with 83 atoms

Minimization stats:
  Stopping criterion = energy tolerance
  Energy initial, next-to-last, final =
  Force two-norm initial, final = 1.2660067 3.3350189
  Force max component initial, final = 1.0636871 2.4255028
  Final line search alpha, max atom move = 0.094012605 0.22802783
  Iterations, force evaluations = 1 2

write_data final_structure_18.data
System init for write_data ...

# Dump final structure in XYZ format for DFT input
write_dump all xyz final_structure_18.xyz

# Move back to parent directory
shell cd ..

# Increment loop
next i
jump SELF loop_start
clear  # 초기화

# Create and move to a new directory for this run
shell mkdir run_19
shell cd run_19

# LAMMPS Input Script for Finding O2- Adsorption Site for DFT
units real
atom_style charge  # ReaxFF requires charge
boundary p p p  # Periodic boundary conditions

# Copy input files to the new directory
shell cp ../chelpg_updated_c60malonicester.data .
shell cp ../chelpg_updated_O2.data .
shell cp ../ffield.reax.rdx .

# Read input data files
read_data chelpg_updated_c60malonicester.data
Reading data file ...
  orthogonal box = (-20 -20 -20) to (20 20 20)
  reading atoms ...
  81 atoms
read_data chelpg_updated_O2.data add append
Reading data file ...
  orthogonal box = (-20 -20 -20) to (20 20 20)
  reading atoms ...
  2 atoms

# Define groups
group c60 type 1 2 3  # c60 (C, H, O)
81 atoms in group c60
group O2molecule type 4  # O2- (assumed type 4)
2 atoms in group O2molecule

# Fix c60 to prevent unwanted movement
fix freeze c60 setforce 0.0 0.0 0.0

# Define ReaxFF pair style and parameters
pair_style reax/c NULL
pair_coeff * * ffield.reax.rdx C H O O  # O2- included
Reading potential file ffield.reax.rdx with DATE: 2010-02-19

# Charge equilibration (QEq) required for ReaxFF
fix 1 all qeq/reaxff 1 0.0 10.0 1.0e-6 reaxff

# Define MSD computation
compute msdO O2molecule msd

# Generate different random positions for O2-
variable seed1 equal 12345+v_i*1000
variable seed2 equal 67890+v_i*1000
variable seed3 equal 54321+v_i*1000
variable dx equal random(-8,8,v_seed1)
variable dy equal random(-8,8,v_seed2)
variable dz equal random(-8,8,v_seed3)
displace_atoms O2molecule move -5.17169761657715 -7.81937122344971 -4.24599170684814 units box
Displacing atoms ...

# Initial energy minimization to relax high-force configurations
minimize 1.0e-6 1.0e-8 5000 10000
Loop time of 0.0090145 on 1 procs for 3 steps with 83 atoms

Minimization stats:
  Stopping criterion = energy tolerance
  Energy initial, next-to-last, final =
  Force two-norm initial, final = 425.44436 0.16894511
  Force max component initial, final = 300.85896 0.13177624
  Final line search alpha, max atom move = 0.26451261 0.034856477
  Iterations, force evaluations = 3 6

write_data minimized_structure_19.data
System init for write_data ...

# Run NVT MD simulation for O2- to find adsorption site
fix nvt O2molecule nvt temp 300.0 300.0 100.0

fix msdout O2molecule ave/time 100 1 100 c_msdO[1] file msd_O2_19.dat
fix msdoutX O2molecule ave/time 100 1 100 c_msdO[2] file msd_O2_X_19.dat
fix msdoutY O2molecule ave/time 100 1 100 c_msdO[3] file msd_O2_Y_19.dat
fix msdoutZ O2molecule ave/time 100 1 100 c_msdO[4] file msd_O2_Z_19.dat

# Save total energy to a file
variable etotal equal pe+ke

# Bond Order Analysis (Check if O2- is binding)
fix bonds all reax/c/bonds 1000 bonds_19.reax

# Output settings: Save trajectory and bond information
thermo 100
thermo_style custom step temp pe ke etotal press
dump 19 all atom 100 dump_19.lammpstrj

timestep 0.25
run 200000  # 1000 ps
Loop time of 211.809 on 1 procs for 200000 steps with 83 atoms

# Final energy minimization for most stable adsorption structure
unfix nvt
minimize 1.0e-6 1.0e-8 5000 10000
Loop time of 0.0039507 on 1 procs for 1 steps with 83 atoms

Minimization stats:
  Stopping criterion = energy tolerance
  Energy initial, next-to-last, final =
  Force two-norm initial, final = 2.3000849 1.5691532
  Force max component initial, final = 1.2621522 0.99446338
  Final line search alpha, max atom move = 0.07922975 0.078791085
  Iterations, force evaluations = 1 2

write_data final_structure_19.data
System init for write_data ...

# Dump final structure in XYZ format for DFT input
write_dump all xyz final_structure_19.xyz

# Move back to parent directory
shell cd ..

# Increment loop
next i
jump SELF loop_start
clear  # 초기화

# Create and move to a new directory for this run
shell mkdir run_20
shell cd run_20

# LAMMPS Input Script for Finding O2- Adsorption Site for DFT
units real
atom_style charge  # ReaxFF requires charge
boundary p p p  # Periodic boundary conditions

# Copy input files to the new directory
shell cp ../chelpg_updated_c60malonicester.data .
shell cp ../chelpg_updated_O2.data .
shell cp ../ffield.reax.rdx .

# Read input data files
read_data chelpg_updated_c60malonicester.data
Reading data file ...
  orthogonal box = (-20 -20 -20) to (20 20 20)
  reading atoms ...
  81 atoms
read_data chelpg_updated_O2.data add append
Reading data file ...
  orthogonal box = (-20 -20 -20) to (20 20 20)
  reading atoms ...
  2 atoms

# Define groups
group c60 type 1 2 3  # c60 (C, H, O)
81 atoms in group c60
group O2molecule type 4  # O2- (assumed type 4)
2 atoms in group O2molecule

# Fix c60 to prevent unwanted movement
fix freeze c60 setforce 0.0 0.0 0.0

# Define ReaxFF pair style and parameters
pair_style reax/c NULL
pair_coeff * * ffield.reax.rdx C H O O  # O2- included
Reading potential file ffield.reax.rdx with DATE: 2010-02-19

# Charge equilibration (QEq) required for ReaxFF
fix 1 all qeq/reaxff 1 0.0 10.0 1.0e-6 reaxff

# Define MSD computation
compute msdO O2molecule msd

# Generate different random positions for O2-
variable seed1 equal 12345+v_i*1000
variable seed2 equal 67890+v_i*1000
variable seed3 equal 54321+v_i*1000
variable dx equal random(-8,8,v_seed1)
variable dy equal random(-8,8,v_seed2)
variable dz equal random(-8,8,v_seed3)
displace_atoms O2molecule move 5.71492576599121 0.411402702331543 4.1230411529541 units box
Displacing atoms ...

# Initial energy minimization to relax high-force configurations
minimize 1.0e-6 1.0e-8 5000 10000
Loop time of 0.0125292 on 1 procs for 5 steps with 83 atoms

Minimization stats:
  Stopping criterion = energy tolerance
  Energy initial, next-to-last, final =
  Force two-norm initial, final = 425.08851 2.858243
  Force max component initial, final = 300.98948 2.3740107
  Final line search alpha, max atom move = 0.015861049 0.0376543
  Iterations, force evaluations = 5 9

write_data minimized_structure_20.data
System init for write_data ...

# Run NVT MD simulation for O2- to find adsorption site
fix nvt O2molecule nvt temp 300.0 300.0 100.0

fix msdout O2molecule ave/time 100 1 100 c_msdO[1] file msd_O2_20.dat
fix msdoutX O2molecule ave/time 100 1 100 c_msdO[2] file msd_O2_X_20.dat
fix msdoutY O2molecule ave/time 100 1 100 c_msdO[3] file msd_O2_Y_20.dat
fix msdoutZ O2molecule ave/time 100 1 100 c_msdO[4] file msd_O2_Z_20.dat

# Save total energy to a file
variable etotal equal pe+ke

# Bond Order Analysis (Check if O2- is binding)
fix bonds all reax/c/bonds 1000 bonds_20.reax

# Output settings: Save trajectory and bond information
thermo 100
thermo_style custom step temp pe ke etotal press
dump 20 all atom 100 dump_20.lammpstrj

timestep 0.25
run 200000  # 1000 ps
Loop time of 213.916 on 1 procs for 200000 steps with 83 atoms

# Final energy minimization for most stable adsorption structure
unfix nvt
minimize 1.0e-6 1.0e-8 5000 10000
Loop time of 0.0040742 on 1 procs for 1 steps with 83 atoms

Minimization stats:
  Stopping criterion = energy tolerance
  Energy initial, next-to-last, final =
  Force two-norm initial, final = 2.0127828 0.90522402
  Force max component initial, final = 1.243075 0.69955348
  Final line search alpha, max atom move = 0.080445669 0.056276048
  Iterations, force evaluations = 1 2

write_data final_structure_20.data
System init for write_data ...

# Dump final structure in XYZ format for DFT input
write_dump all xyz final_structure_20.xyz

# Move back to parent directory
shell cd ..

# Increment loop
next i
jump SELF loop_start
